* Coriolis Structural SPICE Driver
* Generated on Apr 10, 2025, 00:19
* Cell/Subckt "expmob1_r".
* 
* INTERF vss
* INTERF vdd
* INTERF outputs[9]
* INTERF outputs[8]
* INTERF outputs[7]
* INTERF outputs[6]
* INTERF outputs[5]
* INTERF outputs[4]
* INTERF outputs[31]
* INTERF outputs[30]
* INTERF outputs[3]
* INTERF outputs[29]
* INTERF outputs[28]
* INTERF outputs[27]
* INTERF outputs[26]
* INTERF outputs[25]
* INTERF outputs[24]
* INTERF outputs[23]
* INTERF outputs[22]
* INTERF outputs[21]
* INTERF outputs[20]
* INTERF outputs[2]
* INTERF outputs[19]
* INTERF outputs[18]
* INTERF outputs[17]
* INTERF outputs[16]
* INTERF outputs[15]
* INTERF outputs[14]
* INTERF outputs[13]
* INTERF outputs[12]
* INTERF outputs[11]
* INTERF outputs[10]
* INTERF outputs[1]
* INTERF inputs[9]
* INTERF inputs[8]
* INTERF inputs[7]
* INTERF inputs[6]
* INTERF inputs[5]
* INTERF inputs[4]
* INTERF inputs[31]
* INTERF inputs[30]
* INTERF inputs[3]
* INTERF inputs[29]
* INTERF inputs[28]
* INTERF inputs[27]
* INTERF inputs[26]
* INTERF inputs[25]
* INTERF inputs[24]
* INTERF inputs[23]
* INTERF inputs[22]
* INTERF inputs[21]
* INTERF inputs[20]
* INTERF inputs[2]
* INTERF inputs[19]
* INTERF inputs[18]
* INTERF inputs[17]
* INTERF inputs[16]
* INTERF inputs[15]
* INTERF inputs[14]
* INTERF inputs[13]
* INTERF inputs[12]
* INTERF inputs[11]
* INTERF inputs[10]
* INTERF inputs[1]
* INTERF inputs[0]

* Terminal models (aka standard cells) used througout all the hierarchy.
.include decap_w0.spi
.include tie.spi
.include inv_x0.spi
.include nexor2_x0.spi
.include xor2_x0.spi
.include diode_w1.spi

* Non-terminal models (part of the user's design hierarchy).

.subckt expmob1_r 0 1 2 3 4 5 6 7 8 9 10 11 12 13 14 15 16 17 18 19 20 21 22 23 24 25 26 27 28 29 30 31 32 33 34 35 36 37 38 39 40 41 42 43 44 45 46 47 48 49 50 51 52 53 54 55 56 57 58 59 60 61 62 63 64
* NET     0 = vss
* NET     1 = vdd
* NET     2 = outputs[9]
* NET     3 = outputs[8]
* NET     4 = outputs[7]
* NET     5 = outputs[6]
* NET     6 = outputs[5]
* NET     7 = outputs[4]
* NET     8 = outputs[31]
* NET     9 = outputs[30]
* NET    10 = outputs[3]
* NET    11 = outputs[29]
* NET    12 = outputs[28]
* NET    13 = outputs[27]
* NET    14 = outputs[26]
* NET    15 = outputs[25]
* NET    16 = outputs[24]
* NET    17 = outputs[23]
* NET    18 = outputs[22]
* NET    19 = outputs[21]
* NET    20 = outputs[20]
* NET    21 = outputs[2]
* NET    22 = outputs[19]
* NET    23 = outputs[18]
* NET    24 = outputs[17]
* NET    25 = outputs[16]
* NET    26 = outputs[15]
* NET    27 = outputs[14]
* NET    28 = outputs[13]
* NET    29 = outputs[12]
* NET    30 = outputs[11]
* NET    31 = outputs[10]
* NET    32 = outputs[1]
* NET    33 = inputs[9]
* NET    34 = inputs[8]
* NET    35 = inputs[7]
* NET    36 = inputs[6]
* NET    37 = inputs[5]
* NET    38 = inputs[4]
* NET    39 = inputs[31]
* NET    40 = inputs[30]
* NET    41 = inputs[3]
* NET    42 = inputs[29]
* NET    43 = inputs[28]
* NET    44 = inputs[27]
* NET    45 = inputs[26]
* NET    46 = inputs[25]
* NET    47 = inputs[24]
* NET    48 = inputs[23]
* NET    49 = inputs[22]
* NET    50 = inputs[21]
* NET    51 = inputs[20]
* NET    52 = inputs[2]
* NET    53 = inputs[19]
* NET    54 = inputs[18]
* NET    55 = inputs[17]
* NET    56 = inputs[16]
* NET    57 = inputs[15]
* NET    58 = inputs[14]
* NET    59 = inputs[13]
* NET    60 = inputs[12]
* NET    61 = inputs[11]
* NET    62 = inputs[10]
* NET    63 = inputs[1]
* NET    64 = inputs[0]
* NET    65 = genblk1_3_si_outputs_7
* NET    66 = genblk1_3_si_outputs_31
* NET    67 = genblk1_3_si_outputs_3
* NET    68 = genblk1_3_si_outputs_27
* NET    69 = genblk1_3_si_outputs_23
* NET    70 = genblk1_3_si_outputs_19
* NET    71 = genblk1_3_si_outputs_15
* NET    72 = genblk1_3_si_outputs_11
* NET    73 = genblk1_2_si_outputs_7
* NET    74 = genblk1_2_si_outputs_6
* NET    75 = genblk1_2_si_outputs_5
* NET    76 = genblk1_2_si_outputs_31
* NET    77 = genblk1_2_si_outputs_30
* NET    78 = genblk1_2_si_outputs_29
* NET    79 = genblk1_2_si_outputs_23
* NET    80 = genblk1_2_si_outputs_22
* NET    81 = genblk1_2_si_outputs_21
* NET    82 = genblk1_2_si_outputs_15
* NET    83 = genblk1_2_si_outputs_14
* NET    84 = genblk1_2_si_outputs_13
* NET    85 = genblk1_1_si_outputs_9
* NET    86 = genblk1_1_si_outputs_31
* NET    87 = genblk1_1_si_outputs_30
* NET    88 = genblk1_1_si_outputs_29
* NET    89 = genblk1_1_si_outputs_28
* NET    90 = genblk1_1_si_outputs_27
* NET    91 = genblk1_1_si_outputs_26
* NET    92 = genblk1_1_si_outputs_25
* NET    93 = genblk1_1_si_outputs_15
* NET    94 = genblk1_1_si_outputs_14
* NET    95 = genblk1_1_si_outputs_13
* NET    96 = genblk1_1_si_outputs_12
* NET    97 = genblk1_1_si_outputs_11
* NET    98 = genblk1_1_si_outputs_10
* NET    99 = genblk1_1_si_inputs_31
* NET   100 = genblk1_1_si_inputs_30
* NET   101 = genblk1_1_si_inputs_29
* NET   102 = genblk1_1_si_inputs_28
* NET   103 = genblk1_1_si_inputs_27
* NET   104 = genblk1_1_si_inputs_26
* NET   105 = genblk1_1_si_inputs_25
* NET   106 = genblk1_1_si_inputs_24
* NET   107 = genblk1_1_si_inputs_23
* NET   108 = genblk1_1_si_inputs_22
* NET   109 = genblk1_1_si_inputs_21
* NET   110 = genblk1_1_si_inputs_20
* NET   111 = genblk1_1_si_inputs_19
* NET   112 = genblk1_1_si_inputs_18
* NET   113 = genblk1_1_si_inputs_17
* NET   114 = blockagenet
* NET   115 = abc_355_new_n99
* NET   116 = abc_355_new_n98
* NET   117 = abc_355_new_n96
* NET   118 = abc_355_new_n95
* NET   119 = abc_355_new_n93
* NET   120 = abc_355_new_n92
* NET   121 = abc_355_new_n91
* NET   122 = abc_355_new_n90
* NET   123 = abc_355_new_n88
* NET   124 = abc_355_new_n87
* NET   125 = abc_355_new_n86
* NET   126 = abc_355_new_n84
* NET   127 = abc_355_new_n83
* NET   128 = abc_355_new_n81
* NET   129 = abc_355_new_n79
* NET   130 = abc_355_new_n78
* NET   131 = abc_355_new_n76
* NET   132 = abc_355_new_n75
* NET   133 = abc_355_new_n73
* NET   134 = abc_355_new_n72
* NET   135 = abc_355_new_n69
* NET   136 = abc_355_new_n68
* NET   137 = abc_355_new_n66
* NET   138 = abc_355_new_n64
* NET   139 = abc_355_new_n163
* NET   140 = abc_355_new_n162
* NET   141 = abc_355_new_n161
* NET   142 = abc_355_new_n160
* NET   143 = abc_355_new_n158
* NET   144 = abc_355_new_n157
* NET   145 = abc_355_new_n156
* NET   146 = abc_355_new_n154
* NET   147 = abc_355_new_n153
* NET   148 = abc_355_new_n152
* NET   149 = abc_355_new_n150
* NET   150 = abc_355_new_n149
* NET   151 = abc_355_new_n148
* NET   152 = abc_355_new_n146
* NET   153 = abc_355_new_n145
* NET   154 = abc_355_new_n144
* NET   155 = abc_355_new_n142
* NET   156 = abc_355_new_n141
* NET   157 = abc_355_new_n140
* NET   158 = abc_355_new_n138
* NET   159 = abc_355_new_n137
* NET   160 = abc_355_new_n135
* NET   161 = abc_355_new_n134
* NET   162 = abc_355_new_n132
* NET   163 = abc_355_new_n131
* NET   164 = abc_355_new_n130
* NET   165 = abc_355_new_n129
* NET   166 = abc_355_new_n127
* NET   167 = abc_355_new_n126
* NET   168 = abc_355_new_n125
* NET   169 = abc_355_new_n123
* NET   170 = abc_355_new_n122
* NET   171 = abc_355_new_n121
* NET   172 = abc_355_new_n119
* NET   173 = abc_355_new_n118
* NET   174 = abc_355_new_n116
* NET   175 = abc_355_new_n115
* NET   176 = abc_355_new_n113
* NET   177 = abc_355_new_n111
* NET   178 = abc_355_new_n109
* NET   179 = abc_355_new_n107
* NET   180 = abc_355_new_n106
* NET   181 = abc_355_new_n105
* NET   182 = abc_355_new_n103
* NET   183 = abc_355_new_n102
* NET   184 = abc_355_new_n101

xfeed_29239 1 0 decap_w0
xfeed_29238 1 0 decap_w0
xfeed_29237 1 0 decap_w0
xfeed_29236 1 0 decap_w0
xfeed_29235 1 0 decap_w0
xfeed_29234 1 0 decap_w0
xfeed_29233 1 0 decap_w0
xfeed_29232 1 0 decap_w0
xfeed_29231 1 0 decap_w0
xfeed_29230 1 0 decap_w0
xfeed_28709 1 0 decap_w0
xfeed_28708 1 0 decap_w0
xfeed_28707 1 0 decap_w0
xfeed_28706 1 0 decap_w0
xfeed_28705 1 0 decap_w0
xfeed_28704 1 0 decap_w0
xfeed_28703 1 0 decap_w0
xfeed_28702 1 0 decap_w0
xfeed_28701 1 0 decap_w0
xfeed_28700 1 0 decap_w0
xfeed_23786 1 0 decap_w0
xfeed_23785 1 0 decap_w0
xfeed_23784 1 0 decap_w0
xfeed_23783 1 0 decap_w0
xfeed_23782 1 0 decap_w0
xfeed_23781 1 0 decap_w0
xfeed_23780 1 0 decap_w0
xfeed_6739 1 0 decap_w0
xfeed_6738 1 0 decap_w0
xfeed_6737 1 0 decap_w0
xfeed_6736 1 0 decap_w0
xfeed_6735 1 0 decap_w0
xfeed_6734 1 0 decap_w0
xfeed_6733 1 0 decap_w0
xfeed_6732 1 0 decap_w0
xfeed_6731 1 0 decap_w0
xfeed_409 1 0 decap_w0
xfeed_408 1 0 decap_w0
xfeed_407 1 0 decap_w0
xfeed_406 1 0 decap_w0
xfeed_405 1 0 decap_w0
xfeed_404 1 0 decap_w0
xfeed_403 1 0 decap_w0
xfeed_402 1 0 decap_w0
xfeed_401 1 0 decap_w0
xfeed_400 1 0 decap_w0
xfeed_23789 1 0 decap_w0
xfeed_23788 1 0 decap_w0
xfeed_23787 1 0 decap_w0
xfeed_17789 1 0 decap_w0
xfeed_17788 1 0 decap_w0
xfeed_17787 1 0 decap_w0
xfeed_17786 1 0 decap_w0
xfeed_17785 1 0 decap_w0
xfeed_17784 1 0 decap_w0
xfeed_17783 1 0 decap_w0
xfeed_17782 1 0 decap_w0
xfeed_17781 1 0 decap_w0
xfeed_17780 1 0 decap_w0
xfeed_13479 1 0 decap_w0
xfeed_13478 1 0 decap_w0
xfeed_13477 1 0 decap_w0
xfeed_13476 1 0 decap_w0
xfeed_13475 1 0 decap_w0
xfeed_13474 1 0 decap_w0
xfeed_13473 1 0 decap_w0
xfeed_13472 1 0 decap_w0
xfeed_13471 1 0 decap_w0
xfeed_13470 1 0 decap_w0
xfeed_12949 1 0 decap_w0
xfeed_12948 1 0 decap_w0
xfeed_12947 1 0 decap_w0
xfeed_12946 1 0 decap_w0
xfeed_12945 1 0 decap_w0
xfeed_12944 1 0 decap_w0
xfeed_12943 1 0 decap_w0
xfeed_12942 1 0 decap_w0
xfeed_12941 1 0 decap_w0
xfeed_12940 1 0 decap_w0
xfeed_7276 1 0 decap_w0
xfeed_7275 1 0 decap_w0
xfeed_7274 1 0 decap_w0
xfeed_7273 1 0 decap_w0
xfeed_7272 1 0 decap_w0
xfeed_7271 1 0 decap_w0
xfeed_7270 1 0 decap_w0
xfeed_2437 1 0 decap_w0
xfeed_2436 1 0 decap_w0
xfeed_2435 1 0 decap_w0
xfeed_2434 1 0 decap_w0
xfeed_2433 1 0 decap_w0
xfeed_2432 1 0 decap_w0
xfeed_2431 1 0 decap_w0
xfeed_2430 1 0 decap_w0
xfeed_30409 1 0 decap_w0
xfeed_30408 1 0 decap_w0
xfeed_30407 1 0 decap_w0
xfeed_30406 1 0 decap_w0
xfeed_30405 1 0 decap_w0
xfeed_30404 1 0 decap_w0
xfeed_30403 1 0 decap_w0
xfeed_30402 1 0 decap_w0
xfeed_30401 1 0 decap_w0
xfeed_30400 1 0 decap_w0
xfeed_29249 1 0 decap_w0
xfeed_29248 1 0 decap_w0
xfeed_29247 1 0 decap_w0
xfeed_29246 1 0 decap_w0
xfeed_29245 1 0 decap_w0
xfeed_29244 1 0 decap_w0
xfeed_29243 1 0 decap_w0
xfeed_29242 1 0 decap_w0
xfeed_29241 1 0 decap_w0
xfeed_29240 1 0 decap_w0
xfeed_28719 1 0 decap_w0
xfeed_28718 1 0 decap_w0
xfeed_28717 1 0 decap_w0
xfeed_28716 1 0 decap_w0
xfeed_28715 1 0 decap_w0
xfeed_28714 1 0 decap_w0
xfeed_28713 1 0 decap_w0
xfeed_28712 1 0 decap_w0
xfeed_28711 1 0 decap_w0
xfeed_28710 1 0 decap_w0
xfeed_24409 1 0 decap_w0
xfeed_24408 1 0 decap_w0
xfeed_24407 1 0 decap_w0
xfeed_24406 1 0 decap_w0
xfeed_24405 1 0 decap_w0
xfeed_24404 1 0 decap_w0
xfeed_24403 1 0 decap_w0
xfeed_24402 1 0 decap_w0
xfeed_24401 1 0 decap_w0
xfeed_24400 1 0 decap_w0
xfeed_23793 1 0 decap_w0
xfeed_23792 1 0 decap_w0
xfeed_23791 1 0 decap_w0
xfeed_23790 1 0 decap_w0
xfeed_18403 1 0 decap_w0
xfeed_18402 1 0 decap_w0
xfeed_18401 1 0 decap_w0
xfeed_18400 1 0 decap_w0
xfeed_7279 1 0 decap_w0
xfeed_7278 1 0 decap_w0
xfeed_7277 1 0 decap_w0
xfeed_6749 1 0 decap_w0
xfeed_6748 1 0 decap_w0
xfeed_6747 1 0 decap_w0
xfeed_6746 1 0 decap_w0
xfeed_6745 1 0 decap_w0
xfeed_6744 1 0 decap_w0
xfeed_6743 1 0 decap_w0
xfeed_6742 1 0 decap_w0
xfeed_6741 1 0 decap_w0
xfeed_6740 1 0 decap_w0
xfeed_2439 1 0 decap_w0
xfeed_2438 1 0 decap_w0
xfeed_419 1 0 decap_w0
xfeed_418 1 0 decap_w0
xfeed_417 1 0 decap_w0
xfeed_416 1 0 decap_w0
xfeed_415 1 0 decap_w0
xfeed_414 1 0 decap_w0
xfeed_413 1 0 decap_w0
xfeed_412 1 0 decap_w0
xfeed_411 1 0 decap_w0
xfeed_410 1 0 decap_w0
xfeed_1900 1 0 decap_w0
xfeed_1901 1 0 decap_w0
xfeed_1902 1 0 decap_w0
xfeed_1903 1 0 decap_w0
xfeed_1904 1 0 decap_w0
xfeed_1905 1 0 decap_w0
xfeed_1906 1 0 decap_w0
xfeed_1907 1 0 decap_w0
xfeed_1908 1 0 decap_w0
xfeed_1909 1 0 decap_w0
xfeed_23799 1 0 decap_w0
xfeed_23798 1 0 decap_w0
xfeed_23797 1 0 decap_w0
xfeed_23796 1 0 decap_w0
xfeed_23795 1 0 decap_w0
xfeed_23794 1 0 tie
xfeed_18409 1 0 decap_w0
xfeed_18408 1 0 decap_w0
xfeed_18407 1 0 decap_w0
xfeed_18406 1 0 decap_w0
xfeed_18405 1 0 decap_w0
xfeed_18404 1 0 decap_w0
xfeed_17799 1 0 decap_w0
xfeed_17798 1 0 decap_w0
xfeed_17797 1 0 decap_w0
xfeed_17796 1 0 decap_w0
xfeed_17795 1 0 decap_w0
xfeed_17794 1 0 decap_w0
xfeed_17793 1 0 decap_w0
xfeed_17792 1 0 decap_w0
xfeed_17791 1 0 decap_w0
xfeed_17790 1 0 decap_w0
xfeed_13489 1 0 decap_w0
xfeed_13488 1 0 decap_w0
xfeed_13487 1 0 decap_w0
xfeed_13486 1 0 decap_w0
xfeed_13485 1 0 decap_w0
xfeed_13484 1 0 decap_w0
xfeed_13483 1 0 decap_w0
xfeed_13482 1 0 decap_w0
xfeed_13481 1 0 decap_w0
xfeed_13480 1 0 decap_w0
xfeed_12959 1 0 decap_w0
xfeed_12958 1 0 decap_w0
xfeed_12957 1 0 decap_w0
xfeed_12956 1 0 decap_w0
xfeed_12955 1 0 decap_w0
xfeed_12954 1 0 decap_w0
xfeed_12953 1 0 decap_w0
xfeed_12952 1 0 decap_w0
xfeed_12951 1 0 decap_w0
xfeed_12950 1 0 decap_w0
xfeed_7283 1 0 decap_w0
xfeed_7282 1 0 decap_w0
xfeed_7281 1 0 decap_w0
xfeed_7280 1 0 decap_w0
xfeed_2444 1 0 decap_w0
xfeed_2443 1 0 decap_w0
xfeed_2442 1 0 decap_w0
xfeed_2441 1 0 decap_w0
xfeed_2440 1 0 decap_w0
xfeed_30419 1 0 decap_w0
xfeed_30418 1 0 decap_w0
xfeed_30417 1 0 decap_w0
xfeed_30416 1 0 decap_w0
xfeed_30415 1 0 decap_w0
xfeed_30414 1 0 decap_w0
xfeed_30413 1 0 decap_w0
xfeed_30412 1 0 decap_w0
xfeed_30411 1 0 decap_w0
xfeed_30410 1 0 decap_w0
xfeed_29259 1 0 decap_w0
xfeed_29258 1 0 decap_w0
xfeed_29257 1 0 decap_w0
xfeed_29256 1 0 decap_w0
xfeed_29255 1 0 decap_w0
xfeed_29254 1 0 decap_w0
xfeed_29253 1 0 decap_w0
xfeed_29252 1 0 decap_w0
xfeed_29251 1 0 decap_w0
xfeed_29250 1 0 decap_w0
xfeed_28729 1 0 decap_w0
xfeed_28728 1 0 decap_w0
xfeed_28727 1 0 decap_w0
xfeed_28726 1 0 decap_w0
xfeed_28725 1 0 decap_w0
xfeed_28724 1 0 decap_w0
xfeed_28723 1 0 decap_w0
xfeed_28722 1 0 decap_w0
xfeed_28721 1 0 decap_w0
xfeed_28720 1 0 decap_w0
xfeed_24419 1 0 decap_w0
xfeed_24418 1 0 decap_w0
xfeed_24417 1 0 decap_w0
xfeed_24416 1 0 decap_w0
xfeed_24415 1 0 decap_w0
xfeed_24414 1 0 decap_w0
xfeed_24413 1 0 decap_w0
xfeed_24412 1 0 decap_w0
xfeed_24411 1 0 decap_w0
xfeed_24410 1 0 decap_w0
xfeed_20109 1 0 decap_w0
xfeed_20108 1 0 decap_w0
xfeed_20107 1 0 decap_w0
xfeed_20106 1 0 decap_w0
xfeed_20105 1 0 decap_w0
xfeed_20104 1 0 decap_w0
xfeed_20103 1 0 decap_w0
xfeed_20102 1 0 decap_w0
xfeed_20101 1 0 decap_w0
xfeed_20100 1 0 decap_w0
xfeed_18410 1 0 decap_w0
xfeed_14109 1 0 decap_w0
xfeed_14108 1 0 decap_w0
xfeed_14107 1 0 decap_w0
xfeed_14106 1 0 decap_w0
xfeed_14105 1 0 decap_w0
xfeed_14104 1 0 decap_w0
xfeed_14103 1 0 decap_w0
xfeed_14102 1 0 decap_w0
xfeed_14101 1 0 decap_w0
xfeed_14100 1 0 decap_w0
xfeed_7289 1 0 decap_w0
xfeed_7288 1 0 decap_w0
xfeed_7287 1 0 decap_w0
xfeed_7286 1 0 decap_w0
xfeed_7285 1 0 decap_w0
xfeed_7284 1 0 decap_w0
xfeed_6759 1 0 decap_w0
xfeed_6758 1 0 decap_w0
xfeed_6757 1 0 decap_w0
xfeed_6756 1 0 decap_w0
xfeed_6755 1 0 decap_w0
xfeed_6754 1 0 decap_w0
xfeed_6753 1 0 decap_w0
xfeed_6752 1 0 decap_w0
xfeed_6751 1 0 decap_w0
xfeed_6750 1 0 decap_w0
xfeed_2449 1 0 decap_w0
xfeed_2448 1 0 decap_w0
xfeed_2447 1 0 decap_w0
xfeed_2446 1 0 decap_w0
xfeed_2445 1 0 decap_w0
xfeed_429 1 0 decap_w0
xfeed_428 1 0 decap_w0
xfeed_427 1 0 decap_w0
xfeed_426 1 0 decap_w0
xfeed_425 1 0 decap_w0
xfeed_424 1 0 decap_w0
xfeed_423 1 0 decap_w0
xfeed_422 1 0 decap_w0
xfeed_421 1 0 decap_w0
xfeed_420 1 0 decap_w0
xfeed_1910 1 0 decap_w0
xfeed_1911 1 0 decap_w0
xfeed_1912 1 0 decap_w0
xfeed_1913 1 0 decap_w0
xfeed_1914 1 0 decap_w0
xfeed_1915 1 0 decap_w0
xfeed_1916 1 0 decap_w0
xfeed_1917 1 0 decap_w0
xfeed_1918 1 0 decap_w0
xfeed_1919 1 0 decap_w0
xfeed_18419 1 0 decap_w0
xfeed_18418 1 0 decap_w0
xfeed_18417 1 0 decap_w0
xfeed_18416 1 0 decap_w0
xfeed_18415 1 0 decap_w0
xfeed_18414 1 0 decap_w0
xfeed_18413 1 0 decap_w0
xfeed_18412 1 0 decap_w0
xfeed_18411 1 0 decap_w0
xfeed_13499 1 0 decap_w0
xfeed_13498 1 0 decap_w0
xfeed_13497 1 0 decap_w0
xfeed_13496 1 0 decap_w0
xfeed_13495 1 0 decap_w0
xfeed_13494 1 0 decap_w0
xfeed_13493 1 0 decap_w0
xfeed_13492 1 0 decap_w0
xfeed_13491 1 0 decap_w0
xfeed_13490 1 0 decap_w0
xfeed_12969 1 0 decap_w0
xfeed_12968 1 0 decap_w0
xfeed_12967 1 0 decap_w0
xfeed_12966 1 0 decap_w0
xfeed_12965 1 0 decap_w0
xfeed_12964 1 0 decap_w0
xfeed_12963 1 0 decap_w0
xfeed_12962 1 0 decap_w0
xfeed_12961 1 0 decap_w0
xfeed_12960 1 0 decap_w0
xfeed_7290 1 0 decap_w0
xfeed_2451 1 0 decap_w0
xfeed_2450 1 0 decap_w0
xfeed_30429 1 0 decap_w0
xfeed_30428 1 0 decap_w0
xfeed_30427 1 0 decap_w0
xfeed_30426 1 0 decap_w0
xfeed_30425 1 0 decap_w0
xfeed_30424 1 0 decap_w0
xfeed_30423 1 0 decap_w0
xfeed_30422 1 0 decap_w0
xfeed_30421 1 0 decap_w0
xfeed_30420 1 0 decap_w0
xfeed_29269 1 0 decap_w0
xfeed_29268 1 0 decap_w0
xfeed_29267 1 0 decap_w0
xfeed_29266 1 0 decap_w0
xfeed_29265 1 0 decap_w0
xfeed_29264 1 0 decap_w0
xfeed_29263 1 0 decap_w0
xfeed_29262 1 0 decap_w0
xfeed_29261 1 0 decap_w0
xfeed_29260 1 0 decap_w0
xfeed_28739 1 0 decap_w0
xfeed_28738 1 0 decap_w0
xfeed_28737 1 0 decap_w0
xfeed_28736 1 0 decap_w0
xfeed_28735 1 0 decap_w0
xfeed_28734 1 0 decap_w0
xfeed_28733 1 0 decap_w0
xfeed_28732 1 0 decap_w0
xfeed_28731 1 0 decap_w0
xfeed_28730 1 0 decap_w0
xfeed_24429 1 0 decap_w0
xfeed_24428 1 0 decap_w0
xfeed_24427 1 0 decap_w0
xfeed_24426 1 0 decap_w0
xfeed_24425 1 0 decap_w0
xfeed_24424 1 0 decap_w0
xfeed_24423 1 0 decap_w0
xfeed_24422 1 0 decap_w0
xfeed_24421 1 0 decap_w0
xfeed_24420 1 0 decap_w0
xfeed_20119 1 0 decap_w0
xfeed_20118 1 0 decap_w0
xfeed_20117 1 0 decap_w0
xfeed_20116 1 0 decap_w0
xfeed_20115 1 0 decap_w0
xfeed_20114 1 0 decap_w0
xfeed_20113 1 0 decap_w0
xfeed_20112 1 0 decap_w0
xfeed_20111 1 0 decap_w0
xfeed_20110 1 0 decap_w0
xfeed_14117 1 0 decap_w0
xfeed_14116 1 0 decap_w0
xfeed_14115 1 0 decap_w0
xfeed_14114 1 0 decap_w0
xfeed_14113 1 0 decap_w0
xfeed_14112 1 0 decap_w0
xfeed_14111 1 0 decap_w0
xfeed_14110 1 0 decap_w0
xfeed_7299 1 0 decap_w0
xfeed_7298 1 0 decap_w0
xfeed_7297 1 0 decap_w0
xfeed_7296 1 0 decap_w0
xfeed_7295 1 0 decap_w0
xfeed_7294 1 0 decap_w0
xfeed_7293 1 0 decap_w0
xfeed_7292 1 0 decap_w0
xfeed_7291 1 0 decap_w0
xfeed_6769 1 0 decap_w0
xfeed_6768 1 0 decap_w0
xfeed_6767 1 0 decap_w0
xfeed_6766 1 0 decap_w0
xfeed_6765 1 0 decap_w0
xfeed_6764 1 0 decap_w0
xfeed_6763 1 0 decap_w0
xfeed_6762 1 0 decap_w0
xfeed_6761 1 0 decap_w0
xfeed_6760 1 0 decap_w0
xfeed_2459 1 0 decap_w0
xfeed_2458 1 0 decap_w0
xfeed_2457 1 0 decap_w0
xfeed_2456 1 0 decap_w0
xfeed_2455 1 0 decap_w0
xfeed_2454 1 0 decap_w0
xfeed_2453 1 0 decap_w0
xfeed_2452 1 0 decap_w0
xfeed_439 1 0 decap_w0
xfeed_438 1 0 decap_w0
xfeed_437 1 0 decap_w0
xfeed_436 1 0 decap_w0
xfeed_435 1 0 decap_w0
xfeed_434 1 0 decap_w0
xfeed_433 1 0 decap_w0
xfeed_432 1 0 decap_w0
xfeed_431 1 0 decap_w0
xfeed_430 1 0 decap_w0
xfeed_1920 1 0 decap_w0
xfeed_1921 1 0 decap_w0
xfeed_1922 1 0 decap_w0
xfeed_1923 1 0 decap_w0
xfeed_1924 1 0 decap_w0
xfeed_1925 1 0 decap_w0
xfeed_1926 1 0 decap_w0
xfeed_1927 1 0 decap_w0
xfeed_1928 1 0 decap_w0
xfeed_1929 1 0 decap_w0
xfeed_18429 1 0 decap_w0
xfeed_18428 1 0 decap_w0
xfeed_18427 1 0 decap_w0
xfeed_18426 1 0 decap_w0
xfeed_18425 1 0 decap_w0
xfeed_18424 1 0 decap_w0
xfeed_18423 1 0 decap_w0
xfeed_18422 1 0 decap_w0
xfeed_18421 1 0 decap_w0
xfeed_18420 1 0 decap_w0
xfeed_14119 1 0 decap_w0
xfeed_14118 1 0 decap_w0
xfeed_12979 1 0 decap_w0
xfeed_12978 1 0 decap_w0
xfeed_12977 1 0 decap_w0
xfeed_12976 1 0 decap_w0
xfeed_12975 1 0 decap_w0
xfeed_12974 1 0 decap_w0
xfeed_12973 1 0 decap_w0
xfeed_12972 1 0 decap_w0
xfeed_12971 1 0 decap_w0
xfeed_12970 1 0 decap_w0
xfeed_30439 1 0 decap_w0
xfeed_30438 1 0 decap_w0
xfeed_30437 1 0 decap_w0
xfeed_30436 1 0 decap_w0
xfeed_30435 1 0 decap_w0
xfeed_30434 1 0 decap_w0
xfeed_30433 1 0 decap_w0
xfeed_30432 1 0 decap_w0
xfeed_30431 1 0 decap_w0
xfeed_30430 1 0 decap_w0
xfeed_29279 1 0 decap_w0
xfeed_29278 1 0 decap_w0
xfeed_29277 1 0 decap_w0
xfeed_29276 1 0 decap_w0
xfeed_29275 1 0 decap_w0
xfeed_29274 1 0 decap_w0
xfeed_29273 1 0 decap_w0
xfeed_29272 1 0 decap_w0
xfeed_29271 1 0 decap_w0
xfeed_29270 1 0 decap_w0
xfeed_28749 1 0 decap_w0
xfeed_28748 1 0 decap_w0
xfeed_28747 1 0 decap_w0
xfeed_28746 1 0 decap_w0
xfeed_28745 1 0 decap_w0
xfeed_28744 1 0 decap_w0
xfeed_28743 1 0 decap_w0
xfeed_28742 1 0 decap_w0
xfeed_28741 1 0 decap_w0
xfeed_28740 1 0 decap_w0
xfeed_24439 1 0 decap_w0
xfeed_24438 1 0 decap_w0
xfeed_24437 1 0 decap_w0
xfeed_24436 1 0 decap_w0
xfeed_24435 1 0 decap_w0
xfeed_24434 1 0 decap_w0
xfeed_24433 1 0 decap_w0
xfeed_24432 1 0 decap_w0
xfeed_24431 1 0 decap_w0
xfeed_24430 1 0 decap_w0
xfeed_23909 1 0 decap_w0
xfeed_23908 1 0 decap_w0
xfeed_23907 1 0 decap_w0
xfeed_23906 1 0 decap_w0
xfeed_23905 1 0 decap_w0
xfeed_23904 1 0 decap_w0
xfeed_23903 1 0 decap_w0
xfeed_23902 1 0 decap_w0
xfeed_23901 1 0 decap_w0
xfeed_23900 1 0 decap_w0
xfeed_20129 1 0 decap_w0
xfeed_20128 1 0 decap_w0
xfeed_20127 1 0 decap_w0
xfeed_20126 1 0 decap_w0
xfeed_20125 1 0 decap_w0
xfeed_20124 1 0 decap_w0
xfeed_20123 1 0 decap_w0
xfeed_20122 1 0 decap_w0
xfeed_20121 1 0 decap_w0
xfeed_20120 1 0 decap_w0
xfeed_14124 1 0 decap_w0
xfeed_14123 1 0 decap_w0
xfeed_14122 1 0 decap_w0
xfeed_14121 1 0 decap_w0
xfeed_14120 1 0 decap_w0
xfeed_6779 1 0 decap_w0
xfeed_6778 1 0 decap_w0
xfeed_6777 1 0 decap_w0
xfeed_6776 1 0 decap_w0
xfeed_6775 1 0 decap_w0
xfeed_6774 1 0 decap_w0
xfeed_6773 1 0 decap_w0
xfeed_6772 1 0 decap_w0
xfeed_6771 1 0 decap_w0
xfeed_6770 1 0 decap_w0
xfeed_2469 1 0 decap_w0
xfeed_2468 1 0 decap_w0
xfeed_2467 1 0 decap_w0
xfeed_2466 1 0 decap_w0
xfeed_2465 1 0 decap_w0
xfeed_2464 1 0 decap_w0
xfeed_2463 1 0 decap_w0
xfeed_2462 1 0 decap_w0
xfeed_2461 1 0 decap_w0
xfeed_2460 1 0 decap_w0
xfeed_449 1 0 decap_w0
xfeed_448 1 0 decap_w0
xfeed_447 1 0 decap_w0
xfeed_446 1 0 decap_w0
xfeed_445 1 0 decap_w0
xfeed_444 1 0 decap_w0
xfeed_443 1 0 decap_w0
xfeed_442 1 0 decap_w0
xfeed_441 1 0 decap_w0
xfeed_440 1 0 decap_w0
xfeed_1930 1 0 decap_w0
xfeed_1931 1 0 decap_w0
xfeed_1932 1 0 decap_w0
xfeed_1933 1 0 decap_w0
xfeed_1934 1 0 decap_w0
xfeed_1935 1 0 decap_w0
xfeed_1936 1 0 decap_w0
xfeed_1937 1 0 decap_w0
xfeed_1938 1 0 decap_w0
xfeed_1939 1 0 decap_w0
xfeed_18439 1 0 decap_w0
xfeed_18438 1 0 decap_w0
xfeed_18437 1 0 decap_w0
xfeed_18436 1 0 decap_w0
xfeed_18435 1 0 decap_w0
xfeed_18434 1 0 decap_w0
xfeed_18433 1 0 decap_w0
xfeed_18432 1 0 decap_w0
xfeed_18431 1 0 decap_w0
xfeed_18430 1 0 decap_w0
xfeed_17909 1 0 decap_w0
xfeed_17908 1 0 decap_w0
xfeed_17907 1 0 decap_w0
xfeed_17906 1 0 decap_w0
xfeed_17905 1 0 decap_w0
xfeed_17904 1 0 decap_w0
xfeed_17903 1 0 decap_w0
xfeed_17902 1 0 decap_w0
xfeed_17901 1 0 decap_w0
xfeed_17900 1 0 decap_w0
xfeed_14129 1 0 decap_w0
xfeed_14128 1 0 decap_w0
xfeed_14127 1 0 decap_w0
xfeed_14126 1 0 decap_w0
xfeed_14125 1 0 decap_w0
xfeed_12989 1 0 decap_w0
xfeed_12988 1 0 decap_w0
xfeed_12987 1 0 decap_w0
xfeed_12986 1 0 decap_w0
xfeed_12985 1 0 decap_w0
xfeed_12984 1 0 decap_w0
xfeed_12983 1 0 decap_w0
xfeed_12982 1 0 decap_w0
xfeed_12981 1 0 decap_w0
xfeed_12980 1 0 decap_w0
xfeed_30449 1 0 decap_w0
xfeed_30448 1 0 decap_w0
xfeed_30447 1 0 decap_w0
xfeed_30446 1 0 decap_w0
xfeed_30445 1 0 decap_w0
xfeed_30444 1 0 decap_w0
xfeed_30443 1 0 decap_w0
xfeed_30442 1 0 decap_w0
xfeed_30441 1 0 decap_w0
xfeed_30440 1 0 decap_w0
xfeed_29289 1 0 decap_w0
xfeed_29288 1 0 decap_w0
xfeed_29287 1 0 decap_w0
xfeed_29286 1 0 decap_w0
xfeed_29285 1 0 decap_w0
xfeed_29284 1 0 decap_w0
xfeed_29283 1 0 decap_w0
xfeed_29282 1 0 decap_w0
xfeed_29281 1 0 decap_w0
xfeed_29280 1 0 decap_w0
xfeed_28758 1 0 decap_w0
xfeed_28757 1 0 decap_w0
xfeed_28756 1 0 decap_w0
xfeed_28755 1 0 decap_w0
xfeed_28754 1 0 decap_w0
xfeed_28753 1 0 decap_w0
xfeed_28752 1 0 decap_w0
xfeed_28751 1 0 decap_w0
xfeed_28750 1 0 decap_w0
xfeed_24449 1 0 decap_w0
xfeed_24448 1 0 decap_w0
xfeed_24447 1 0 decap_w0
xfeed_24446 1 0 decap_w0
xfeed_24445 1 0 decap_w0
xfeed_24444 1 0 decap_w0
xfeed_24443 1 0 decap_w0
xfeed_24442 1 0 decap_w0
xfeed_24441 1 0 decap_w0
xfeed_24440 1 0 decap_w0
xfeed_23919 1 0 decap_w0
xfeed_23918 1 0 decap_w0
xfeed_23917 1 0 decap_w0
xfeed_23916 1 0 decap_w0
xfeed_23915 1 0 decap_w0
xfeed_23914 1 0 decap_w0
xfeed_23913 1 0 decap_w0
xfeed_23912 1 0 decap_w0
xfeed_23911 1 0 decap_w0
xfeed_23910 1 0 decap_w0
xfeed_20139 1 0 decap_w0
xfeed_20138 1 0 decap_w0
xfeed_20137 1 0 decap_w0
xfeed_20136 1 0 decap_w0
xfeed_20135 1 0 decap_w0
xfeed_20134 1 0 decap_w0
xfeed_20133 1 0 decap_w0
xfeed_20132 1 0 decap_w0
xfeed_20131 1 0 decap_w0
xfeed_20130 1 0 decap_w0
xfeed_14131 1 0 decap_w0
xfeed_14130 1 0 decap_w0
xfeed_6789 1 0 decap_w0
xfeed_6788 1 0 decap_w0
xfeed_6787 1 0 decap_w0
xfeed_6786 1 0 decap_w0
xfeed_6785 1 0 decap_w0
xfeed_6784 1 0 decap_w0
xfeed_6783 1 0 decap_w0
xfeed_6782 1 0 decap_w0
xfeed_6781 1 0 decap_w0
xfeed_6780 1 0 decap_w0
xfeed_2479 1 0 decap_w0
xfeed_2478 1 0 decap_w0
xfeed_2477 1 0 decap_w0
xfeed_2476 1 0 decap_w0
xfeed_2475 1 0 decap_w0
xfeed_2474 1 0 decap_w0
xfeed_2473 1 0 decap_w0
xfeed_2472 1 0 decap_w0
xfeed_2471 1 0 decap_w0
xfeed_2470 1 0 decap_w0
xfeed_459 1 0 decap_w0
xfeed_458 1 0 decap_w0
xfeed_457 1 0 decap_w0
xfeed_456 1 0 decap_w0
xfeed_455 1 0 decap_w0
xfeed_454 1 0 decap_w0
xfeed_453 1 0 decap_w0
xfeed_452 1 0 decap_w0
xfeed_451 1 0 decap_w0
xfeed_450 1 0 decap_w0
xfeed_1940 1 0 decap_w0
xfeed_1941 1 0 decap_w0
xfeed_1942 1 0 decap_w0
xfeed_1943 1 0 decap_w0
xfeed_1944 1 0 decap_w0
xfeed_1945 1 0 decap_w0
xfeed_1946 1 0 decap_w0
xfeed_1947 1 0 decap_w0
xfeed_1948 1 0 decap_w0
xfeed_1949 1 0 decap_w0
xfeed_28759 1 0 decap_w0
xfeed_18449 1 0 decap_w0
xfeed_18448 1 0 decap_w0
xfeed_18447 1 0 decap_w0
xfeed_18446 1 0 decap_w0
xfeed_18445 1 0 decap_w0
xfeed_18444 1 0 decap_w0
xfeed_18443 1 0 decap_w0
xfeed_18442 1 0 decap_w0
xfeed_18441 1 0 decap_w0
xfeed_18440 1 0 decap_w0
xfeed_17919 1 0 decap_w0
xfeed_17918 1 0 decap_w0
xfeed_17917 1 0 decap_w0
xfeed_17916 1 0 decap_w0
xfeed_17915 1 0 decap_w0
xfeed_17914 1 0 decap_w0
xfeed_17913 1 0 decap_w0
xfeed_17912 1 0 decap_w0
xfeed_17911 1 0 decap_w0
xfeed_17910 1 0 decap_w0
xfeed_14139 1 0 decap_w0
xfeed_14138 1 0 decap_w0
xfeed_14137 1 0 decap_w0
xfeed_14136 1 0 decap_w0
xfeed_14135 1 0 decap_w0
xfeed_14134 1 0 decap_w0
xfeed_14133 1 0 decap_w0
xfeed_14132 1 0 decap_w0
xfeed_13609 1 0 decap_w0
xfeed_13608 1 0 decap_w0
xfeed_13607 1 0 decap_w0
xfeed_13606 1 0 decap_w0
xfeed_13605 1 0 decap_w0
xfeed_13604 1 0 decap_w0
xfeed_13603 1 0 decap_w0
xfeed_13602 1 0 decap_w0
xfeed_13601 1 0 tie
xfeed_13600 1 0 decap_w0
xfeed_12999 1 0 decap_w0
xfeed_12998 1 0 decap_w0
xfeed_12997 1 0 decap_w0
xfeed_12996 1 0 decap_w0
xfeed_12995 1 0 decap_w0
xfeed_12994 1 0 decap_w0
xfeed_12993 1 0 decap_w0
xfeed_12992 1 0 decap_w0
xfeed_12991 1 0 decap_w0
xfeed_12990 1 0 decap_w0
xfeed_7409 1 0 decap_w0
xfeed_7408 1 0 decap_w0
xfeed_7407 1 0 decap_w0
xfeed_7406 1 0 decap_w0
xfeed_7405 1 0 decap_w0
xfeed_7404 1 0 decap_w0
xfeed_7403 1 0 decap_w0
xfeed_7402 1 0 decap_w0
xfeed_7401 1 0 decap_w0
xfeed_7400 1 0 decap_w0
xfeed_30459 1 0 decap_w0
xfeed_30458 1 0 decap_w0
xfeed_30457 1 0 decap_w0
xfeed_30456 1 0 decap_w0
xfeed_30455 1 0 decap_w0
xfeed_30454 1 0 decap_w0
xfeed_30453 1 0 decap_w0
xfeed_30452 1 0 decap_w0
xfeed_30451 1 0 decap_w0
xfeed_30450 1 0 decap_w0
xfeed_29299 1 0 decap_w0
xfeed_29298 1 0 decap_w0
xfeed_29297 1 0 decap_w0
xfeed_29296 1 0 decap_w0
xfeed_29295 1 0 decap_w0
xfeed_29294 1 0 decap_w0
xfeed_29293 1 0 decap_w0
xfeed_29292 1 0 decap_w0
xfeed_29291 1 0 decap_w0
xfeed_29290 1 0 decap_w0
xfeed_28765 1 0 decap_w0
xfeed_28764 1 0 decap_w0
xfeed_28763 1 0 decap_w0
xfeed_28762 1 0 decap_w0
xfeed_28761 1 0 decap_w0
xfeed_28760 1 0 decap_w0
xfeed_24459 1 0 decap_w0
xfeed_24458 1 0 decap_w0
xfeed_24457 1 0 decap_w0
xfeed_24456 1 0 decap_w0
xfeed_24455 1 0 decap_w0
xfeed_24454 1 0 decap_w0
xfeed_24453 1 0 decap_w0
xfeed_24452 1 0 decap_w0
xfeed_24451 1 0 decap_w0
xfeed_24450 1 0 decap_w0
xfeed_23926 1 0 decap_w0
xfeed_23925 1 0 decap_w0
xfeed_23924 1 0 decap_w0
xfeed_23923 1 0 decap_w0
xfeed_23922 1 0 decap_w0
xfeed_23921 1 0 decap_w0
xfeed_23920 1 0 decap_w0
xfeed_20149 1 0 decap_w0
xfeed_20148 1 0 decap_w0
xfeed_20147 1 0 decap_w0
xfeed_20146 1 0 decap_w0
xfeed_20145 1 0 decap_w0
xfeed_20144 1 0 decap_w0
xfeed_20143 1 0 decap_w0
xfeed_20142 1 0 decap_w0
xfeed_20141 1 0 decap_w0
xfeed_20140 1 0 decap_w0
xfeed_6799 1 0 decap_w0
xfeed_6798 1 0 decap_w0
xfeed_6797 1 0 decap_w0
xfeed_6796 1 0 decap_w0
xfeed_6795 1 0 decap_w0
xfeed_6794 1 0 decap_w0
xfeed_6793 1 0 decap_w0
xfeed_6792 1 0 decap_w0
xfeed_6791 1 0 decap_w0
xfeed_6790 1 0 decap_w0
xfeed_2489 1 0 decap_w0
xfeed_2488 1 0 decap_w0
xfeed_2487 1 0 decap_w0
xfeed_2486 1 0 decap_w0
xfeed_2485 1 0 decap_w0
xfeed_2484 1 0 decap_w0
xfeed_2483 1 0 decap_w0
xfeed_2482 1 0 decap_w0
xfeed_2481 1 0 decap_w0
xfeed_2480 1 0 decap_w0
xfeed_469 1 0 decap_w0
xfeed_468 1 0 decap_w0
xfeed_467 1 0 decap_w0
xfeed_466 1 0 decap_w0
xfeed_465 1 0 decap_w0
xfeed_464 1 0 decap_w0
xfeed_463 1 0 decap_w0
xfeed_462 1 0 decap_w0
xfeed_461 1 0 decap_w0
xfeed_460 1 0 decap_w0
xfeed_1950 1 0 decap_w0
xfeed_1951 1 0 decap_w0
xfeed_1952 1 0 decap_w0
xfeed_1953 1 0 decap_w0
xfeed_1954 1 0 decap_w0
xfeed_1955 1 0 decap_w0
xfeed_1956 1 0 decap_w0
xfeed_1957 1 0 decap_w0
xfeed_1958 1 0 decap_w0
xfeed_1959 1 0 decap_w0
xfeed_28769 1 0 decap_w0
xfeed_28768 1 0 decap_w0
xfeed_28767 1 0 decap_w0
xfeed_28766 1 0 decap_w0
xfeed_23929 1 0 decap_w0
xfeed_23928 1 0 decap_w0
xfeed_23927 1 0 decap_w0
xfeed_18459 1 0 decap_w0
xfeed_18458 1 0 decap_w0
xfeed_18457 1 0 decap_w0
xfeed_18456 1 0 decap_w0
xfeed_18455 1 0 decap_w0
xfeed_18454 1 0 decap_w0
xfeed_18453 1 0 decap_w0
xfeed_18452 1 0 decap_w0
xfeed_18451 1 0 decap_w0
xfeed_18450 1 0 decap_w0
xfeed_17929 1 0 decap_w0
xfeed_17928 1 0 decap_w0
xfeed_17927 1 0 decap_w0
xfeed_17926 1 0 decap_w0
xfeed_17925 1 0 decap_w0
xfeed_17924 1 0 decap_w0
xfeed_17923 1 0 decap_w0
xfeed_17922 1 0 decap_w0
xfeed_17921 1 0 decap_w0
xfeed_17920 1 0 decap_w0
xfeed_14149 1 0 decap_w0
xfeed_14148 1 0 decap_w0
xfeed_14147 1 0 decap_w0
xfeed_14146 1 0 decap_w0
xfeed_14145 1 0 decap_w0
xfeed_14144 1 0 decap_w0