*SPEF "ieee 1481-1999"
*DESIGN "expmob1"
*DATE "01:42:21 Saturday March 15, 2025"
*VENDOR "The OpenROAD Project"
*PROGRAM "OpenROAD"
*VERSION "edf00dff99f6c40d67a30c0e22a8191c5d2ed9d6"
*DESIGN_FLOW "NAME_SCOPE LOCAL" "PIN_CAP NONE"
*DIVIDER /
*DELIMITER :
*BUS_DELIMITER []
*T_UNIT 1 NS
*C_UNIT 1 PF
*R_UNIT 1 OHM
*L_UNIT 1 HENRY

*NAME_MAP
*3 inputs[0]
*4 inputs[10]
*5 inputs[11]
*6 inputs[12]
*7 inputs[13]
*8 inputs[14]
*9 inputs[15]
*10 inputs[16]
*11 inputs[17]
*12 inputs[18]
*13 inputs[19]
*14 inputs[1]
*15 inputs[20]
*16 inputs[21]
*17 inputs[22]
*18 inputs[23]
*19 inputs[24]
*20 inputs[25]
*21 inputs[26]
*22 inputs[27]
*23 inputs[28]
*24 inputs[29]
*25 inputs[2]
*26 inputs[30]
*27 inputs[31]
*28 inputs[3]
*29 inputs[4]
*30 inputs[5]
*31 inputs[6]
*32 inputs[7]
*33 inputs[8]
*34 inputs[9]
*35 outputs[0]
*36 outputs[10]
*37 outputs[11]
*38 outputs[12]
*39 outputs[13]
*40 outputs[14]
*41 outputs[15]
*42 outputs[16]
*43 outputs[17]
*44 outputs[18]
*45 outputs[19]
*46 outputs[1]
*47 outputs[20]
*48 outputs[21]
*49 outputs[22]
*50 outputs[23]
*51 outputs[24]
*52 outputs[25]
*53 outputs[26]
*54 outputs[27]
*55 outputs[28]
*56 outputs[29]
*57 outputs[2]
*58 outputs[30]
*59 outputs[31]
*60 outputs[3]
*61 outputs[4]
*62 outputs[5]
*63 outputs[6]
*64 outputs[7]
*65 outputs[8]
*66 outputs[9]
*67 _000_
*68 _001_
*69 _002_
*70 _003_
*71 _004_
*72 _005_
*73 _006_
*74 _007_
*75 _008_
*76 _009_
*77 _010_
*78 _011_
*79 _012_
*80 _013_
*81 _014_
*82 _015_
*83 _016_
*84 _017_
*85 _018_
*86 _019_
*87 _020_
*88 _021_
*89 _022_
*90 _023_
*91 _024_
*92 _025_
*93 _026_
*94 _027_
*95 _028_
*96 _029_
*97 _030_
*98 _031_
*99 _032_
*100 _033_
*101 _034_
*102 _035_
*103 _036_
*104 _037_
*105 _038_
*106 _039_
*107 _040_
*108 _041_
*109 _042_
*110 _043_
*111 _044_
*112 _045_
*113 _046_
*114 _047_
*115 _048_
*116 net1
*117 net10
*118 net11
*119 net12
*120 net13
*121 net14
*122 net15
*123 net16
*124 net17
*125 net18
*126 net19
*127 net2
*128 net20
*129 net21
*130 net22
*131 net23
*132 net24
*133 net25
*134 net26
*135 net27
*136 net28
*137 net29
*138 net3
*139 net30
*140 net31
*141 net32
*142 net33
*143 net34
*144 net35
*145 net36
*146 net37
*147 net38
*148 net39
*149 net4
*150 net40
*151 net41
*152 net42
*153 net43
*154 net44
*155 net45
*156 net46
*157 net47
*158 net48
*159 net49
*160 net5
*161 net50
*162 net51
*163 net52
*164 net53
*165 net54
*166 net55
*167 net56
*168 net57
*169 net58
*170 net59
*171 net6
*172 net60
*173 net61
*174 net62
*175 net63
*176 net64
*177 net7
*178 net8
*179 net9
*180 FILLER_0_15
*181 FILLER_0_21
*182 FILLER_0_36
*183 FILLER_0_41
*184 FILLER_0_48
*185 FILLER_0_55
*186 FILLER_0_57
*187 FILLER_0_63
*188 FILLER_0_70
*189 FILLER_0_77
*190 FILLER_0_85
*191 FILLER_0_91
*192 FILLER_0_99
*193 FILLER_10_103
*194 FILLER_10_49
*195 FILLER_10_61
*196 FILLER_10_77
*197 FILLER_10_83
*198 FILLER_10_85
*199 FILLER_10_89
*200 FILLER_10_97
*201 FILLER_11_101
*202 FILLER_11_21
*203 FILLER_11_29
*204 FILLER_11_3
*205 FILLER_11_38
*206 FILLER_11_44
*207 FILLER_11_52
*208 FILLER_11_57
*209 FILLER_11_69
*210 FILLER_11_77
*211 FILLER_12_104
*212 FILLER_12_16
*213 FILLER_12_29
*214 FILLER_12_41
*215 FILLER_12_53
*216 FILLER_12_65
*217 FILLER_12_77
*218 FILLER_12_83
*219 FILLER_12_98
*220 FILLER_13_106
*221 FILLER_13_22
*222 FILLER_13_34
*223 FILLER_13_45
*224 FILLER_13_53
*225 FILLER_13_57
*226 FILLER_13_69
*227 FILLER_13_81
*228 FILLER_13_89
*229 FILLER_13_98
*230 FILLER_14_25
*231 FILLER_14_29
*232 FILLER_14_41
*233 FILLER_14_53
*234 FILLER_14_65
*235 FILLER_14_77
*236 FILLER_14_83
*237 FILLER_14_99
*238 FILLER_15_100
*239 FILLER_15_104
*240 FILLER_15_19
*241 FILLER_15_38
*242 FILLER_15_46
*243 FILLER_15_54
*244 FILLER_15_57
*245 FILLER_15_69
*246 FILLER_15_88
*247 FILLER_16_106
*248 FILLER_16_13
*249 FILLER_16_78
*250 FILLER_17_104
*251 FILLER_17_23
*252 FILLER_17_29
*253 FILLER_17_49
*254 FILLER_17_57
*255 FILLER_17_62
*256 FILLER_17_70
*257 FILLER_17_76
*258 FILLER_17_85
*259 FILLER_17_91
*260 FILLER_17_97
*261 FILLER_1_103
*262 FILLER_1_20
*263 FILLER_1_34
*264 FILLER_1_64
*265 FILLER_1_87
*266 FILLER_2_103
*267 FILLER_2_13
*268 FILLER_2_27
*269 FILLER_2_29
*270 FILLER_2_51
*271 FILLER_2_79
*272 FILLER_2_83
*273 FILLER_2_99
*274 FILLER_3_102
*275 FILLER_3_16
*276 FILLER_3_25
*277 FILLER_3_37
*278 FILLER_3_49
*279 FILLER_3_55
*280 FILLER_3_64
*281 FILLER_3_70
*282 FILLER_3_78
*283 FILLER_3_88
*284 FILLER_3_94
*285 FILLER_4_103
*286 FILLER_4_17
*287 FILLER_4_25
*288 FILLER_4_29
*289 FILLER_4_41
*290 FILLER_4_53
*291 FILLER_4_65
*292 FILLER_4_77
*293 FILLER_4_83
*294 FILLER_4_85
*295 FILLER_4_97
*296 FILLER_5_103
*297 FILLER_5_35
*298 FILLER_5_47
*299 FILLER_5_55
*300 FILLER_5_57
*301 FILLER_5_69
*302 FILLER_5_75
*303 FILLER_5_83
*304 FILLER_5_95
*305 FILLER_6_10
*306 FILLER_6_103
*307 FILLER_6_22
*308 FILLER_6_42
*309 FILLER_6_54
*310 FILLER_6_58
*311 FILLER_6_66
*312 FILLER_6_78
*313 FILLER_6_85
*314 FILLER_6_91
*315 FILLER_6_99
*316 FILLER_7_101
*317 FILLER_7_24
*318 FILLER_7_3
*319 FILLER_7_36
*320 FILLER_7_48
*321 FILLER_7_57
*322 FILLER_7_69
*323 FILLER_7_93
*324 FILLER_8_102
*325 FILLER_8_20
*326 FILLER_8_29
*327 FILLER_8_41
*328 FILLER_8_53
*329 FILLER_8_65
*330 FILLER_8_77
*331 FILLER_8_83
*332 FILLER_8_85
*333 FILLER_8_93
*334 FILLER_9_102
*335 FILLER_9_27
*336 FILLER_9_3
*337 FILLER_9_39
*338 FILLER_9_51
*339 FILLER_9_55
*340 FILLER_9_64
*341 FILLER_9_76
*342 FILLER_9_88
*343 FILLER_9_94
*344 PHY_EDGE_ROW_0_Left_18
*345 PHY_EDGE_ROW_0_Right_0
*346 PHY_EDGE_ROW_10_Left_28
*347 PHY_EDGE_ROW_10_Right_10
*348 PHY_EDGE_ROW_11_Left_29
*349 PHY_EDGE_ROW_11_Right_11
*350 PHY_EDGE_ROW_12_Left_30
*351 PHY_EDGE_ROW_12_Right_12
*352 PHY_EDGE_ROW_13_Left_31
*353 PHY_EDGE_ROW_13_Right_13
*354 PHY_EDGE_ROW_14_Left_32
*355 PHY_EDGE_ROW_14_Right_14
*356 PHY_EDGE_ROW_15_Left_33
*357 PHY_EDGE_ROW_15_Right_15
*358 PHY_EDGE_ROW_16_Left_34
*359 PHY_EDGE_ROW_16_Right_16
*360 PHY_EDGE_ROW_17_Left_35
*361 PHY_EDGE_ROW_17_Right_17
*362 PHY_EDGE_ROW_1_Left_19
*363 PHY_EDGE_ROW_1_Right_1
*364 PHY_EDGE_ROW_2_Left_20
*365 PHY_EDGE_ROW_2_Right_2
*366 PHY_EDGE_ROW_3_Left_21
*367 PHY_EDGE_ROW_3_Right_3
*368 PHY_EDGE_ROW_4_Left_22
*369 PHY_EDGE_ROW_4_Right_4
*370 PHY_EDGE_ROW_5_Left_23
*371 PHY_EDGE_ROW_5_Right_5
*372 PHY_EDGE_ROW_6_Left_24
*373 PHY_EDGE_ROW_6_Right_6
*374 PHY_EDGE_ROW_7_Left_25
*375 PHY_EDGE_ROW_7_Right_7
*376 PHY_EDGE_ROW_8_Left_26
*377 PHY_EDGE_ROW_8_Right_8
*378 PHY_EDGE_ROW_9_Left_27
*379 PHY_EDGE_ROW_9_Right_9
*380 TAP_TAPCELL_ROW_0_36
*381 TAP_TAPCELL_ROW_0_37
*382 TAP_TAPCELL_ROW_0_38
*383 TAP_TAPCELL_ROW_10_52
*384 TAP_TAPCELL_ROW_10_53
*385 TAP_TAPCELL_ROW_11_54
*386 TAP_TAPCELL_ROW_12_55
*387 TAP_TAPCELL_ROW_12_56
*388 TAP_TAPCELL_ROW_13_57
*389 TAP_TAPCELL_ROW_14_58
*390 TAP_TAPCELL_ROW_14_59
*391 TAP_TAPCELL_ROW_15_60
*392 TAP_TAPCELL_ROW_16_61
*393 TAP_TAPCELL_ROW_16_62
*394 TAP_TAPCELL_ROW_17_63
*395 TAP_TAPCELL_ROW_17_64
*396 TAP_TAPCELL_ROW_17_65
*397 TAP_TAPCELL_ROW_1_39
*398 TAP_TAPCELL_ROW_2_40
*399 TAP_TAPCELL_ROW_2_41
*400 TAP_TAPCELL_ROW_3_42
*401 TAP_TAPCELL_ROW_4_43
*402 TAP_TAPCELL_ROW_4_44
*403 TAP_TAPCELL_ROW_5_45
*404 TAP_TAPCELL_ROW_6_46
*405 TAP_TAPCELL_ROW_6_47
*406 TAP_TAPCELL_ROW_7_48
*407 TAP_TAPCELL_ROW_8_49
*408 TAP_TAPCELL_ROW_8_50
*409 TAP_TAPCELL_ROW_9_51
*410 _049_
*411 _050_
*412 _051_
*413 _052_
*414 _053_
*415 _054_
*416 _055_
*417 _056_
*418 _057_
*419 _058_
*420 _059_
*421 _060_
*422 _061_
*423 _062_
*424 _063_
*425 _064_
*426 _065_
*427 _066_
*428 _067_
*429 _068_
*430 _069_
*431 _070_
*432 _071_
*433 _072_
*434 _073_
*435 _074_
*436 _075_
*437 _076_
*438 _077_
*439 _078_
*440 _079_
*441 _080_
*442 _081_
*443 _082_
*444 _083_
*445 _084_
*446 _085_
*447 _086_
*448 _087_
*449 _088_
*450 _089_
*451 _090_
*452 _091_
*453 _092_
*454 _093_
*455 _094_
*456 _095_
*457 _096_
*458 _097_
*459 _098_
*460 _099_
*461 _100_
*462 _101_
*463 _102_
*464 _103_
*465 _104_
*466 _105_
*467 _106_
*468 _107_
*469 _108_
*470 _109_
*471 _110_
*472 _111_
*473 _112_
*474 _113_
*475 _114_
*476 _115_
*477 _116_
*478 _117_
*479 _118_
*480 _119_
*481 _120_
*482 _121_
*483 _122_
*484 _123_
*485 _124_
*486 _125_
*487 _126_
*488 _127_
*489 _128_
*490 _129_
*491 input1
*492 input10
*493 input11
*494 input12
*495 input13
*496 input14
*497 input15
*498 input16
*499 input17
*500 input18
*501 input19
*502 input2
*503 input20
*504 input21
*505 input22
*506 input23
*507 input24
*508 input25
*509 input26
*510 input27
*511 input28
*512 input29
*513 input3
*514 input30
*515 input31
*516 input32
*517 input4
*518 input5
*519 input6
*520 input7
*521 input8
*522 input9
*523 output33
*524 output34
*525 output35
*526 output36
*527 output37
*528 output38
*529 output39
*530 output40
*531 output41
*532 output42
*533 output43
*534 output44
*535 output45
*536 output46
*537 output47
*538 output48
*539 output49
*540 output50
*541 output51
*542 output52
*543 output53
*544 output54
*545 output55
*546 output56
*547 output57
*548 output58
*549 output59
*550 output60
*551 output61
*552 output62
*553 output63
*554 output64

*PORTS
inputs[0] I
inputs[10] I
inputs[11] I
inputs[12] I
inputs[13] I
inputs[14] I
inputs[15] I
inputs[16] I
inputs[17] I
inputs[18] I
inputs[19] I
inputs[1] I
inputs[20] I
inputs[21] I
inputs[22] I
inputs[23] I
inputs[24] I
inputs[25] I
inputs[26] I
inputs[27] I
inputs[28] I
inputs[29] I
inputs[2] I
inputs[30] I
inputs[31] I
inputs[3] I
inputs[4] I
inputs[5] I
inputs[6] I
inputs[7] I
inputs[8] I
inputs[9] I
outputs[0] O
outputs[10] O
outputs[11] O
outputs[12] O
outputs[13] O
outputs[14] O
outputs[15] O
outputs[16] O
outputs[17] O
outputs[18] O
outputs[19] O
outputs[1] O
outputs[20] O
outputs[21] O
outputs[22] O
outputs[23] O
outputs[24] O
outputs[25] O
outputs[26] O
outputs[27] O
outputs[28] O
outputs[29] O
outputs[2] O
outputs[30] O
outputs[31] O
outputs[3] O
outputs[4] O
outputs[5] O
outputs[6] O
outputs[7] O
outputs[8] O
outputs[9] O

*D_NET *3 0.00246984
*CONN
*P inputs[0] I
*I *491:A I *D sky130_fd_sc_hd__buf_4
*CAP
1 inputs[0] 0.000880057
2 *491:A 0.000880057
3 *491:A outputs[4] 5.40137e-05
4 *491:A *511:A 5.55316e-05
5 *491:A *514:A 0.000453663
6 *491:A *139:14 0.000146523
*RES
1 inputs[0] *491:A 35.0317 
*END

*D_NET *4 0.0017451
*CONN
*P inputs[10] I
*I *502:A I *D sky130_fd_sc_hd__buf_1
*CAP
1 inputs[10] 0.000554726
2 *502:A 0.000554726
3 *502:A outputs[0] 0
4 *502:A outputs[3] 0.000286044
5 *502:A *415:A 0.000228558
6 *502:A *523:A 0
7 *502:A *545:A 0
8 *502:A *548:A 5.52302e-05
9 *502:A *131:12 6.58195e-05
*RES
1 inputs[10] *502:A 26.9429 
*END

*D_NET *5 0.00112867
*CONN
*P inputs[11] I
*I *513:A I *D sky130_fd_sc_hd__buf_1
*CAP
1 inputs[11] 0.000562488
2 *513:A 0.000562488
3 *513:A *453:A 3.69047e-06
4 *513:A *520:A 0
*RES
1 inputs[11] *513:A 24.4786 
*END

*D_NET *6 0.000650261
*CONN
*P inputs[12] I
*I *517:A I *D sky130_fd_sc_hd__buf_1
*CAP
1 inputs[12] 0.000297864
2 *517:A 0.000297864
3 *517:A *499:A 2.25951e-05
4 *517:A *521:A 3.19385e-05
5 *517:A *94:14 0
*RES
1 inputs[12] *517:A 21.0874 
*END

*D_NET *7 0.00120017
*CONN
*P inputs[13] I
*I *518:A I *D sky130_fd_sc_hd__buf_1
*CAP
1 inputs[13] 0.0005277
2 *518:A 0.0005277
3 *518:A outputs[13] 0
4 *518:A outputs[15] 0
5 *518:A *479:B 0.000144773
6 *518:A *527:A 0
*RES
1 inputs[13] *518:A 24.4786 
*END

*D_NET *8 0.000946163
*CONN
*P inputs[14] I
*I *519:A I *D sky130_fd_sc_hd__buf_1
*CAP
1 inputs[14] 0.000463436
2 *519:A 0.000463436
3 *519:A outputs[16] 0
4 *519:A *507:A 0
5 *519:A *171:18 1.92905e-05
*RES
1 inputs[14] *519:A 22.6571 
*END

*D_NET *9 0.00101766
*CONN
*P inputs[15] I
*I *520:A I *D sky130_fd_sc_hd__buf_1
*CAP
1 inputs[15] 0.00050883
2 *520:A 0.00050883
3 *520:A outputs[14] 0
4 *520:A *528:A 0
5 *513:A *520:A 0
*RES
1 inputs[15] *520:A 23.6571 
*END

*D_NET *10 0.00112906
*CONN
*P inputs[16] I
*I *521:A I *D sky130_fd_sc_hd__clkbuf_2
*CAP
1 inputs[16] 0.000333512
2 *521:A 0.000333512
3 *521:A *410:A 8.39e-05
4 *521:A *495:A 0
5 *521:A *499:A 0
6 *521:A *510:A 6.37275e-05
7 *521:A *94:14 0.000282474
8 *521:A *116:30 0
9 *517:A *521:A 3.19385e-05
*RES
1 inputs[16] *521:A 21.5342 
*END

*D_NET *11 0.00200265
*CONN
*P inputs[17] I
*I *522:A I *D sky130_fd_sc_hd__clkbuf_2
*CAP
1 inputs[17] 0.000646968
2 *522:A 0.000646968
3 *522:A *442:A 2.14757e-05
4 *522:A *442:B 0.000116183
5 *522:A *445:B 9.25014e-06
6 *522:A *494:A 0
7 *522:A *500:A 3.19385e-05
8 *522:A *515:A 0.000188989
9 *522:A *115:16 0.00014183
10 *522:A *116:12 0.000174572
11 *522:A *170:14 2.44768e-05
*RES
1 inputs[17] *522:A 24.7019 
*END

*D_NET *12 0.000845223
*CONN
*P inputs[18] I
*I *492:A I *D sky130_fd_sc_hd__buf_1
*CAP
1 inputs[18] 0.000422611
2 *492:A 0.000422611
3 *492:A *501:A 0
4 *492:A *504:A 0
*RES
1 inputs[18] *492:A 21.8357 
*END

*D_NET *13 0.000400078
*CONN
*P inputs[19] I
*I *493:A I *D sky130_fd_sc_hd__buf_1
*CAP
1 inputs[19] 0.00013725
2 *493:A 0.00013725
3 *493:A outputs[25] 5.92712e-05
4 *493:A outputs[27] 0
5 *493:A *455:B 0
6 *493:A *498:A 0
7 *493:A *503:A 6.63071e-05
*RES
1 inputs[19] *493:A 18.0508 
*END

*D_NET *14 0.00094912
*CONN
*P inputs[1] I
*I *494:A I *D sky130_fd_sc_hd__clkbuf_4
*CAP
1 inputs[1] 0.000396102
2 *494:A 0.000396102
3 *494:A *496:A 5.40137e-05
4 *494:A *500:A 2.25951e-05
5 *494:A *119:6 4.97621e-05
6 *494:A *119:12 3.05446e-05
7 *522:A *494:A 0
*RES
1 inputs[1] *494:A 22.5495 
*END

*D_NET *15 0.00123108
*CONN
*P inputs[20] I
*I *495:A I *D sky130_fd_sc_hd__buf_1
*CAP
1 inputs[20] 0.00031038
2 *495:A 0.00031038
3 *495:A outputs[2] 6.8587e-05
4 *495:A *510:A 0.000137331
5 *495:A *94:14 0.0004044
6 *521:A *495:A 0
*RES
1 inputs[20] *495:A 22.98 
*END

*D_NET *16 0.00109426
*CONN
*P inputs[21] I
*I *496:A I *D sky130_fd_sc_hd__clkbuf_1
*CAP
1 inputs[21] 0.000280999
2 *496:A 0.000280999
3 *496:A outputs[5] 9.51145e-05
4 *496:A *516:A 0.000185393
5 *496:A *119:25 0.000187705
6 *496:A *136:10 1.00375e-05
7 *494:A *496:A 5.40137e-05
*RES
1 inputs[21] *496:A 22.6764 
*END

*D_NET *17 0.000966602
*CONN
*P inputs[22] I
*I *497:A I *D sky130_fd_sc_hd__clkbuf_1
*CAP
1 inputs[22] 0.000456629
2 *497:A 0.000456629
3 *497:A *424:B 5.33433e-05
4 *497:A *501:A 0
5 *497:A *507:A 0
*RES
1 inputs[22] *497:A 22.6571 
*END

*D_NET *18 0.000578163
*CONN
*P inputs[23] I
*I *498:A I *D sky130_fd_sc_hd__clkbuf_1
*CAP
1 inputs[23] 0.000224061
2 *498:A 0.000224061
3 *498:A *503:A 6.37342e-05
4 *498:A *508:A 6.63071e-05
5 *493:A *498:A 0
*RES
1 inputs[23] *498:A 19.5686 
*END

*D_NET *19 0.00101818
*CONN
*P inputs[24] I
*I *499:A I *D sky130_fd_sc_hd__buf_1
*CAP
1 inputs[24] 0.000475641
2 *499:A 0.000475641
3 *499:A *515:A 4.42999e-05
4 *499:A *94:14 0
5 *517:A *499:A 2.25951e-05
6 *521:A *499:A 0
*RES
1 inputs[24] *499:A 24.1917 
*END

*D_NET *20 0.000679968
*CONN
*P inputs[25] I
*I *500:A I *D sky130_fd_sc_hd__buf_1
*CAP
1 inputs[25] 0.000312717
2 *500:A 0.000312717
3 *500:A *94:14 0
4 *494:A *500:A 2.25951e-05
5 *522:A *500:A 3.19385e-05
*RES
1 inputs[25] *500:A 21.391 
*END

*D_NET *21 0.0010778
*CONN
*P inputs[26] I
*I *501:A I *D sky130_fd_sc_hd__clkbuf_1
*CAP
1 inputs[26] 0.000493323
2 *501:A 0.000493323
3 *501:A *423:A 9.11545e-05
4 *492:A *501:A 0
5 *497:A *501:A 0
*RES
1 inputs[26] *501:A 23.6036 
*END

*D_NET *22 0.000636117
*CONN
*P inputs[27] I
*I *503:A I *D sky130_fd_sc_hd__clkbuf_1
*CAP
1 inputs[27] 0.000231877
2 *503:A 0.000231877
3 *503:A *450:A 4.23215e-05
4 *493:A *503:A 6.63071e-05
5 *498:A *503:A 6.37342e-05
*RES
1 inputs[27] *503:A 20.3359 
*END

*D_NET *23 0.00275481
*CONN
*P inputs[28] I
*I *504:A I *D sky130_fd_sc_hd__clkbuf_1
*CAP
1 inputs[28] 0.00101062
2 *504:A 0.00101062
3 *504:A outputs[3] 0.000173159
4 *504:A *422:B 8.67371e-05
5 *504:A *439:B 0.000148189
6 *504:A *512:A 0.000325491
7 *504:A *523:A 0
8 *492:A *504:A 0
*RES
1 inputs[28] *504:A 32.7931 
*END

*D_NET *24 0.00120017
*CONN
*P inputs[29] I
*I *505:A I *D sky130_fd_sc_hd__clkbuf_1
*CAP
1 inputs[29] 0.0005277
2 *505:A 0.0005277
3 *505:A outputs[11] 0
4 *505:A outputs[13] 0
5 *505:A *479:B 0.000144773
6 *505:A *525:A 0
*RES
1 inputs[29] *505:A 24.4786 
*END

*D_NET *25 0.00124161
*CONN
*P inputs[2] I
*I *506:A I *D sky130_fd_sc_hd__buf_2
*CAP
1 inputs[2] 0.000479814
2 *506:A 0.000479814
3 *506:A outputs[0] 0.000187668
4 *506:A outputs[3] 3.71658e-05
5 *506:A *545:A 5.71472e-05
*RES
1 inputs[2] *506:A 25.9589 
*END

*D_NET *26 0.000950711
*CONN
*P inputs[30] I
*I *507:A I *D sky130_fd_sc_hd__clkbuf_1
*CAP
1 inputs[30] 0.00047351
2 *507:A 0.00047351
3 *507:A *426:A 3.69047e-06
4 *497:A *507:A 0
5 *519:A *507:A 0
*RES
1 inputs[30] *507:A 22.9071 
*END

*D_NET *27 0.000788907
*CONN
*P inputs[31] I
*I *508:A I *D sky130_fd_sc_hd__clkbuf_1
*CAP
1 inputs[31] 0.0003613
2 *508:A 0.0003613
3 *508:A *453:A 0
4 *498:A *508:A 6.63071e-05
*RES
1 inputs[31] *508:A 21.8537 
*END

*D_NET *28 0.00367937
*CONN
*P inputs[3] I
*I *509:A I *D sky130_fd_sc_hd__buf_2
*CAP
1 inputs[3] 0.000915107
2 *509:A 0.000915107
3 *509:A outputs[10] 0
4 *509:A outputs[1] 0.000557638
5 *509:A outputs[4] 0.000216398
6 *509:A outputs[6] 0
7 *509:A outputs[8] 0.000226146
8 *509:A *511:A 2.25951e-05
9 *509:A *551:A 0
10 *509:A *116:12 0.000548489
11 *509:A *134:8 0.000139907
12 *509:A *139:25 0.000137983
*RES
1 inputs[3] *509:A 33.6146 
*END

*D_NET *29 0.00141045
*CONN
*P inputs[4] I
*I *510:A I *D sky130_fd_sc_hd__clkbuf_2
*CAP
1 inputs[4] 0.000514554
2 *510:A 0.000514554
3 *510:A *414:A 5.52238e-05
4 *510:A *415:B 0.000125057
5 *495:A *510:A 0.000137331
6 *521:A *510:A 6.37275e-05
*RES
1 inputs[4] *510:A 24.9609 
*END

*D_NET *30 0.001067
*CONN
*P inputs[5] I
*I *511:A I *D sky130_fd_sc_hd__dlymetal6s2s_1
*CAP
1 inputs[5] 0.000480051
2 *511:A 0.000480051
3 *511:A outputs[1] 2.87684e-05
4 *511:A *514:A 0
5 *491:A *511:A 5.55316e-05
6 *509:A *511:A 2.25951e-05
*RES
1 inputs[5] *511:A 24.7303 
*END

*D_NET *31 0.000978902
*CONN
*P inputs[6] I
*I *512:A I *D sky130_fd_sc_hd__clkbuf_2
*CAP
1 inputs[6] 0.000326706
2 *512:A 0.000326706
3 *512:A outputs[3] 0
4 *504:A *512:A 0.000325491
*RES
1 inputs[6] *512:A 21.9429 
*END

*D_NET *32 0.00119967
*CONN
*P inputs[7] I
*I *514:A I *D sky130_fd_sc_hd__dlymetal6s2s_1
*CAP
1 inputs[7] 0.000373005
2 *514:A 0.000373005
3 *514:A outputs[10] 0
4 *491:A *514:A 0.000453663
5 *511:A *514:A 0
*RES
1 inputs[7] *514:A 23.6571 
*END

*D_NET *33 0.00145384
*CONN
*P inputs[8] I
*I *515:A I *D sky130_fd_sc_hd__clkbuf_2
*CAP
1 inputs[8] 0.000600491
2 *515:A 0.000600491
3 *515:A *413:B 1.03245e-05
4 *515:A *421:B 9.25014e-06
5 *515:A *111:8 0
6 *499:A *515:A 4.42999e-05
7 *522:A *515:A 0.000188989
*RES
1 inputs[8] *515:A 19.5074 
*END

*D_NET *34 0.00220779
*CONN
*P inputs[9] I
*I *516:A I *D sky130_fd_sc_hd__clkbuf_2
*CAP
1 inputs[9] 0.000762703
2 *516:A 0.000762703
3 *516:A outputs[1] 6.11541e-05
4 *516:A outputs[5] 8.43387e-05
5 *516:A *483:B 5.52302e-05
6 *516:A *524:A 0.00014183
7 *516:A *136:10 0
8 *516:A *136:17 0.000154443
9 *496:A *516:A 0.000185393
*RES
1 inputs[9] *516:A 30.0323 
*END

*D_NET *35 0.00138238
*CONN
*P outputs[0] O
*I *523:X O *D sky130_fd_sc_hd__buf_2
*CAP
1 outputs[0] 0.000435548
2 *523:X 0.000435548
3 outputs[0] outputs[2] 0.000151858
4 outputs[0] outputs[3] 0
5 outputs[0] *545:A 2.89114e-05
6 outputs[0] *131:12 0.00014285
7 *502:A outputs[0] 0
8 *506:A outputs[0] 0.000187668
*RES
1 *523:X outputs[0] 24.7817 
*END

*D_NET *36 0.00274397
*CONN
*P outputs[10] O
*I *524:X O *D sky130_fd_sc_hd__buf_2
*CAP
1 outputs[10] 0.000882206
2 *524:X 0.000882206
3 outputs[10] outputs[8] 0
4 outputs[10] *440:A 3.55407e-05
5 outputs[10] *483:B 0.000150625
6 outputs[10] *487:B 0.000197991
7 outputs[10] *489:B 0.000175519
8 outputs[10] *136:10 0.000148465
9 outputs[10] *136:17 9.71197e-05
10 outputs[10] *139:14 6.69491e-05
11 outputs[10] *170:14 4.66203e-05
12 outputs[10] *170:23 6.07232e-05
13 *509:A outputs[10] 0
14 *514:A outputs[10] 0
*RES
1 *524:X outputs[10] 34.3893 
*END

*D_NET *37 0.00114857
*CONN
*P outputs[11] O
*I *525:X O *D sky130_fd_sc_hd__buf_2
*CAP
1 outputs[11] 0.000548128
2 *525:X 0.000548128
3 outputs[11] outputs[12] 0
4 outputs[11] outputs[4] 0
5 outputs[11] *479:B 5.23142e-05
6 *505:A outputs[11] 0
*RES
1 *525:X outputs[11] 23.8714 
*END

*D_NET *38 0.00164206
*CONN
*P outputs[12] O
*I *526:X O *D sky130_fd_sc_hd__buf_2
*CAP
1 outputs[12] 0.000495317
2 *526:X 0.000495317
3 outputs[12] outputs[4] 0.000421267
4 outputs[12] outputs[9] 0
5 outputs[12] *479:A 0.000230155
6 outputs[11] outputs[12] 0
*RES
1 *526:X outputs[12] 25.3536 
*END

*D_NET *39 0.00114044
*CONN
*P outputs[13] O
*I *527:X O *D sky130_fd_sc_hd__buf_2
*CAP
1 outputs[13] 0.000544064
2 *527:X 0.000544064
3 outputs[13] *479:B 5.23142e-05
4 *505:A outputs[13] 0
5 *518:A outputs[13] 0
*RES
1 *527:X outputs[13] 23.8714 
*END

*D_NET *40 0.00113233
*CONN
*P outputs[14] O
*I *528:X O *D sky130_fd_sc_hd__buf_2
*CAP
1 outputs[14] 0.000566167
2 *528:X 0.000566167
3 outputs[14] outputs[15] 0
4 *520:A outputs[14] 0
*RES
1 *528:X outputs[14] 23.8714 
*END

*D_NET *41 0.00113986
*CONN
*P outputs[15] O
*I *529:X O *D sky130_fd_sc_hd__buf_2
*CAP
1 outputs[15] 0.00053656
2 *529:X 0.00053656
3 outputs[15] *479:B 3.48705e-05
4 outputs[15] *529:A 3.18676e-05
5 outputs[14] outputs[15] 0
6 *518:A outputs[15] 0
*RES
1 *529:X outputs[15] 23.8714 
*END

*D_NET *42 0.000876077
*CONN
*P outputs[16] O
*I *530:X O *D sky130_fd_sc_hd__buf_2
*CAP
1 outputs[16] 0.000438039
2 *530:X 0.000438039
3 outputs[16] outputs[18] 0
4 *519:A outputs[16] 0
*RES
1 *530:X outputs[16] 21.6393 
*END

*D_NET *43 0.000522788
*CONN
*P outputs[17] O
*I *531:X O *D sky130_fd_sc_hd__buf_2
*CAP
1 outputs[17] 0.000198605
2 *531:X 0.000198605
3 outputs[17] outputs[19] 6.63071e-05
4 outputs[17] outputs[24] 5.92712e-05
5 outputs[17] *457:B 0
*RES
1 *531:X outputs[17] 18.9251 
*END

*D_NET *44 0.000880645
*CONN
*P outputs[18] O
*I *532:X O *D sky130_fd_sc_hd__buf_2
*CAP
1 outputs[18] 0.000440323
2 *532:X 0.000440323
3 outputs[18] outputs[20] 0
4 outputs[16] outputs[18] 0
*RES
1 *532:X outputs[18] 21.6393 
*END

*D_NET *45 0.000523604
*CONN
*P outputs[19] O
*I *533:X O *D sky130_fd_sc_hd__buf_2
*CAP
1 outputs[19] 0.000187067
2 *533:X 0.000187067
3 outputs[19] outputs[24] 0
4 outputs[19] outputs[30] 8.31618e-05
5 outputs[19] *457:B 0
6 outputs[17] outputs[19] 6.63071e-05
*RES
1 *533:X outputs[19] 18.73 
*END

*D_NET *46 0.00302485
*CONN
*P outputs[1] O
*I *534:X O *D sky130_fd_sc_hd__buf_2
*CAP
1 outputs[1] 0.000985188
2 *534:X 0.000985188
3 outputs[1] *489:A 0
4 outputs[1] *534:A 0.00029629
5 outputs[1] *551:A 0
6 outputs[1] *111:8 0
7 outputs[1] *116:12 0.00011062
8 *509:A outputs[1] 0.000557638
9 *511:A outputs[1] 2.87684e-05
10 *516:A outputs[1] 6.11541e-05
*RES
1 *534:X outputs[1] 28.9902 
*END

*D_NET *47 0.000896709
*CONN
*P outputs[20] O
*I *535:X O *D sky130_fd_sc_hd__buf_2
*CAP
1 outputs[20] 0.000425429
2 *535:X 0.000425429
3 outputs[20] outputs[22] 0
4 outputs[20] *532:A 1.39841e-05
5 outputs[20] *535:A 3.18676e-05
6 outputs[18] outputs[20] 0
*RES
1 *535:X outputs[20] 21.6393 
*END

*D_NET *48 0.000880645
*CONN
*P outputs[21] O
*I *536:X O *D sky130_fd_sc_hd__buf_2
*CAP
1 outputs[21] 0.000440323
2 *536:X 0.000440323
3 outputs[21] outputs[22] 0
*RES
1 *536:X outputs[21] 21.6393 
*END

*D_NET *49 0.00096179
*CONN
*P outputs[22] O
*I *537:X O *D sky130_fd_sc_hd__buf_2
*CAP
1 outputs[22] 0.000466439
2 *537:X 0.000466439
3 outputs[22] *537:A 2.89114e-05
4 outputs[20] outputs[22] 0
5 outputs[21] outputs[22] 0
*RES
1 *537:X outputs[22] 22.05 
*END

*D_NET *50 0.000819106
*CONN
*P outputs[23] O
*I *538:X O *D sky130_fd_sc_hd__buf_2
*CAP
1 outputs[23] 0.000366685
2 *538:X 0.000366685
3 outputs[23] outputs[29] 8.57347e-05
*RES
1 *538:X outputs[23] 21.7657 
*END

*D_NET *51 0.000452184
*CONN
*P outputs[24] O
*I *539:X O *D sky130_fd_sc_hd__buf_2
*CAP
1 outputs[24] 0.000163303
2 *539:X 0.000163303
3 outputs[24] outputs[26] 6.63071e-05
4 outputs[24] outputs[27] 0
5 outputs[17] outputs[24] 5.92712e-05
6 outputs[19] outputs[24] 0
*RES
1 *539:X outputs[24] 18.1229 
*END

*D_NET *52 0.000514832
*CONN
*P outputs[25] O
*I *540:X O *D sky130_fd_sc_hd__buf_2
*CAP
1 outputs[25] 0.000194627
2 *540:X 0.000194627
3 outputs[25] outputs[27] 6.63071e-05
4 outputs[25] *540:A 0
5 *493:A outputs[25] 5.92712e-05
*RES
1 *540:X outputs[25] 19.2287 
*END

*D_NET *53 0.000663117
*CONN
*P outputs[26] O
*I *541:X O *D sky130_fd_sc_hd__buf_2
*CAP
1 outputs[26] 0.000266538
2 *541:X 0.000266538
3 outputs[26] outputs[27] 6.37342e-05
4 outputs[26] *541:A 0
5 outputs[24] outputs[26] 6.63071e-05
*RES
1 *541:X outputs[26] 20.1394 
*END

*D_NET *54 0.000522292
*CONN
*P outputs[27] O
*I *542:X O *D sky130_fd_sc_hd__buf_2
*CAP
1 outputs[27] 0.000196125
2 *542:X 0.000196125
3 outputs[27] *540:A 0
4 outputs[24] outputs[27] 0
5 outputs[25] outputs[27] 6.63071e-05
6 outputs[26] outputs[27] 6.37342e-05
7 *493:A outputs[27] 0
*RES
1 *542:X outputs[27] 18.73 
*END

*D_NET *55 0.000453822
*CONN
*P outputs[28] O
*I *543:X O *D sky130_fd_sc_hd__buf_2
*CAP
1 outputs[28] 0.000142164
2 *543:X 0.000142164
3 outputs[28] outputs[29] 8.31618e-05
4 outputs[28] outputs[31] 7.41371e-05
5 outputs[28] *538:A 1.21955e-05
*RES
1 *543:X outputs[28] 18.1229 
*END

*D_NET *56 0.000713919
*CONN
*P outputs[29] O
*I *544:X O *D sky130_fd_sc_hd__buf_2
*CAP
1 outputs[29] 0.000272511
2 *544:X 0.000272511
3 outputs[23] outputs[29] 8.57347e-05
4 outputs[28] outputs[29] 8.31618e-05
*RES
1 *544:X outputs[29] 19.0183 
*END

*D_NET *57 0.000756852
*CONN
*P outputs[2] O
*I *545:X O *D sky130_fd_sc_hd__buf_2
*CAP
1 outputs[2] 0.000259341
2 *545:X 0.000259341
3 outputs[2] *545:A 1.77247e-05
4 outputs[0] outputs[2] 0.000151858
5 *495:A outputs[2] 6.8587e-05
*RES
1 *545:X outputs[2] 19.6044 
*END

*D_NET *58 0.000603116
*CONN
*P outputs[30] O
*I *546:X O *D sky130_fd_sc_hd__buf_2
*CAP
1 outputs[30] 0.000187355
2 *546:X 0.000187355
3 outputs[30] outputs[31] 8.31618e-05
4 outputs[30] *546:A 6.20827e-05
5 outputs[19] outputs[30] 8.31618e-05
*RES
1 *546:X outputs[30] 19.3371 
*END

*D_NET *59 0.000478696
*CONN
*P outputs[31] O
*I *547:X O *D sky130_fd_sc_hd__buf_2
*CAP
1 outputs[31] 0.000160698
2 *547:X 0.000160698
3 outputs[31] *458:B 0
4 outputs[28] outputs[31] 7.41371e-05
5 outputs[30] outputs[31] 8.31618e-05
*RES
1 *547:X outputs[31] 18.4264 
*END

*D_NET *60 0.00183289
*CONN
*P outputs[3] O
*I *548:X O *D sky130_fd_sc_hd__buf_2
*CAP
1 outputs[3] 0.000627938
2 *548:X 0.000627938
3 outputs[3] *523:A 8.06427e-05
4 outputs[0] outputs[3] 0
5 *502:A outputs[3] 0.000286044
6 *504:A outputs[3] 0.000173159
7 *506:A outputs[3] 3.71658e-05
8 *512:A outputs[3] 0
*RES
1 *548:X outputs[3] 27.8786 
*END

*D_NET *61 0.00518764
*CONN
*P outputs[4] O
*I *549:X O *D sky130_fd_sc_hd__buf_2
*CAP
1 outputs[4] 0.0019721
2 *549:X 0.0019721
3 outputs[4] *443:A 0.000180066
4 outputs[4] *471:A 0.000123359
5 outputs[4] *472:A 0.000137412
6 outputs[4] *472:B 7.50697e-05
7 outputs[4] *478:B 0
8 outputs[4] *480:B 3.58558e-05
9 outputs[4] *525:A 0
10 outputs[4] *526:A 0
11 outputs[11] outputs[4] 0
12 outputs[12] outputs[4] 0.000421267
13 *491:A outputs[4] 5.40137e-05
14 *509:A outputs[4] 0.000216398
*RES
1 *549:X outputs[4] 38.2039 
*END

*D_NET *62 0.000605381
*CONN
*P outputs[5] O
*I *550:X O *D sky130_fd_sc_hd__buf_2
*CAP
1 outputs[5] 0.000212964
2 *550:X 0.000212964
3 *496:A outputs[5] 9.51145e-05
4 *516:A outputs[5] 8.43387e-05
*RES
1 *550:X outputs[5] 18.9972 
*END

*D_NET *63 0.00116938
*CONN
*P outputs[6] O
*I *551:X O *D sky130_fd_sc_hd__buf_2
*CAP
1 outputs[6] 0.000558531
2 *551:X 0.000558531
3 outputs[6] outputs[7] 0
4 outputs[6] outputs[8] 0
5 outputs[6] *553:A 5.23142e-05
6 *509:A outputs[6] 0
*RES
1 *551:X outputs[6] 23.8714 
*END

*D_NET *64 0.00110013
*CONN
*P outputs[7] O
*I *552:X O *D sky130_fd_sc_hd__buf_2
*CAP
1 outputs[7] 0.000535555
2 *552:X 0.000535555
3 outputs[7] outputs[9] 0
4 outputs[7] *479:A 1.32056e-05
5 outputs[7] *553:A 1.58163e-05
6 outputs[6] outputs[7] 0
*RES
1 *552:X outputs[7] 23.4607 
*END

*D_NET *65 0.00133469
*CONN
*P outputs[8] O
*I *553:X O *D sky130_fd_sc_hd__buf_2
*CAP
1 outputs[8] 0.000531978
2 *553:X 0.000531978
3 outputs[8] *489:A 3.05584e-05
4 outputs[8] *116:8 1.40306e-05
5 outputs[10] outputs[8] 0
6 outputs[6] outputs[8] 0
7 *509:A outputs[8] 0.000226146
*RES
1 *553:X outputs[8] 24.2821 
*END

*D_NET *66 0.00103644
*CONN
*P outputs[9] O
*I *554:X O *D sky130_fd_sc_hd__buf_2
*CAP
1 outputs[9] 0.000489922
2 *554:X 0.000489922
3 outputs[9] *479:A 5.65955e-05
4 outputs[12] outputs[9] 0
5 outputs[7] outputs[9] 0
*RES
1 *554:X outputs[9] 23.05 
*END

*D_NET *67 0.00182078
*CONN
*I *447:B I *D sky130_fd_sc_hd__xnor2_1
*I *446:X O *D sky130_fd_sc_hd__xor2_1
*CAP
1 *447:B 0.000851848
2 *446:X 0.000851848
3 *447:B *444:B 0
4 *447:B *446:A 0
5 *447:B *459:A 2.89114e-05
6 *447:B *85:8 0
7 *447:B *112:5 6.05161e-06
8 *447:B *115:16 7.92975e-05
9 *447:B *160:18 2.8266e-06
*RES
1 *446:X *447:B 42.8321 
*END

*D_NET *68 0.0011791
*CONN
*I *448:B I *D sky130_fd_sc_hd__xnor2_1
*I *447:Y O *D sky130_fd_sc_hd__xnor2_1
*CAP
1 *448:B 0.000500448
2 *447:Y 0.000500448
3 *448:B *459:A 0.000144773
4 *448:B *463:B 3.34295e-05
5 *448:B *465:B 0
6 *448:B *112:9 0
7 *448:B *112:26 0
*RES
1 *447:Y *448:B 36.1714 
*END

*D_NET *69 0.00335991
*CONN
*I *456:A I *D sky130_fd_sc_hd__xnor2_1
*I *458:B I *D sky130_fd_sc_hd__xor2_1
*I *448:Y O *D sky130_fd_sc_hd__xnor2_1
*CAP
1 *456:A 4.40688e-05
2 *458:B 0.000550476
3 *448:Y 0.000526816
4 *69:10 0.00112136
5 *456:A *531:A 5.33334e-05
6 *458:B *429:A 8.16036e-05
7 *458:B *430:B 0
8 *458:B *457:B 0.00027333
9 *458:B *536:A 0
10 *458:B *538:A 5.71472e-05
11 *458:B *547:A 0
12 *458:B *156:10 0
13 *458:B *164:21 2.89114e-05
14 *458:B *167:10 0.000154762
15 *69:10 *430:B 0
16 *69:10 *456:B 0.000150625
17 *69:10 *467:A 0.000125057
18 *69:10 *159:25 0.00019242
19 outputs[31] *458:B 0
*RES
1 *448:Y *69:10 23.5679 
2 *69:10 *458:B 26.6036 
3 *69:10 *456:A 14.7464 
*END

*D_NET *70 0.00192068
*CONN
*I *451:A I *D sky130_fd_sc_hd__xnor2_1
*I *464:A I *D sky130_fd_sc_hd__xnor2_1
*I *467:B I *D sky130_fd_sc_hd__xor2_1
*I *449:Y O *D sky130_fd_sc_hd__xnor2_2
*CAP
1 *451:A 0.000138904
2 *464:A 0
3 *467:B 0.00040844
4 *449:Y 0.000126959
5 *70:21 0.000138904
6 *70:10 0.000535398
7 *467:B *430:B 4.1331e-06
8 *467:B *460:A 0
9 *467:B *462:B 0