*SPEF "ieee 1481-1999"
*DESIGN "expmob1"
*DATE "01:42:21 Saturday March 15, 2025"
*VENDOR "The OpenROAD Project"
*PROGRAM "OpenROAD"
*VERSION "edf00dff99f6c40d67a30c0e22a8191c5d2ed9d6"
*DESIGN_FLOW "NAME_SCOPE LOCAL" "PIN_CAP NONE"
*DIVIDER /
*DELIMITER :
*BUS_DELIMITER []
*T_UNIT 1 NS
*C_UNIT 1 PF
*R_UNIT 1 OHM
*L_UNIT 1 HENRY

*NAME_MAP
*3 inputs[0]
*4 inputs[10]
*5 inputs[11]
*6 inputs[12]
*7 inputs[13]
*8 inputs[14]
*9 inputs[15]
*10 inputs[16]
*11 inputs[17]
*12 inputs[18]
*13 inputs[19]
*14 inputs[1]
*15 inputs[20]
*16 inputs[21]
*17 inputs[22]
*18 inputs[23]
*19 inputs[24]
*20 inputs[25]
*21 inputs[26]
*22 inputs[27]
*23 inputs[28]
*24 inputs[29]
*25 inputs[2]
*26 inputs[30]
*27 inputs[31]
*28 inputs[3]
*29 inputs[4]
*30 inputs[5]
*31 inputs[6]
*32 inputs[7]
*33 inputs[8]
*34 inputs[9]
*35 outputs[0]
*36 outputs[10]
*37 outputs[11]
*38 outputs[12]
*39 outputs[13]
*40 outputs[14]
*41 outputs[15]
*42 outputs[16]
*43 outputs[17]
*44 outputs[18]
*45 outputs[19]
*46 outputs[1]
*47 outputs[20]
*48 outputs[21]
*49 outputs[22]
*50 outputs[23]
*51 outputs[24]
*52 outputs[25]
*53 outputs[26]
*54 outputs[27]
*55 outputs[28]
*56 outputs[29]
*57 outputs[2]
*58 outputs[30]
*59 outputs[31]
*60 outputs[3]
*61 outputs[4]
*62 outputs[5]
*63 outputs[6]
*64 outputs[7]
*65 outputs[8]
*66 outputs[9]
*67 _000_
*68 _001_
*69 _002_
*70 _003_
*71 _004_
*72 _005_
*73 _006_
*74 _007_
*75 _008_
*76 _009_
*77 _010_
*78 _011_
*79 _012_
*80 _013_
*81 _014_
*82 _015_
*83 _016_
*84 _017_
*85 _018_
*86 _019_
*87 _020_
*88 _021_
*89 _022_
*90 _023_
*91 _024_
*92 _025_
*93 _026_
*94 _027_
*95 _028_
*96 _029_
*97 _030_
*98 _031_
*99 _032_
*100 _033_
*101 _034_
*102 _035_
*103 _036_
*104 _037_
*105 _038_
*106 _039_
*107 _040_
*108 _041_
*109 _042_
*110 _043_
*111 _044_
*112 _045_
*113 _046_
*114 _047_
*115 _048_
*116 net1
*117 net10
*118 net11
*119 net12
*120 net13
*121 net14
*122 net15
*123 net16
*124 net17
*125 net18
*126 net19
*127 net2
*128 net20
*129 net21
*130 net22
*131 net23
*132 net24
*133 net25
*134 net26
*135 net27
*136 net28
*137 net29
*138 net3
*139 net30
*140 net31
*141 net32
*142 net33
*143 net34
*144 net35
*145 net36
*146 net37
*147 net38
*148 net39
*149 net4
*150 net40
*151 net41
*152 net42
*153 net43
*154 net44
*155 net45
*156 net46
*157 net47
*158 net48
*159 net49
*160 net5
*161 net50
*162 net51
*163 net52
*164 net53
*165 net54
*166 net55
*167 net56
*168 net57
*169 net58
*170 net59
*171 net6
*172 net60
*173 net61
*174 net62
*175 net63
*176 net64
*177 net7
*178 net8
*179 net9
*180 FILLER_0_15
*181 FILLER_0_21
*182 FILLER_0_36
*183 FILLER_0_41
*184 FILLER_0_48
*185 FILLER_0_55
*186 FILLER_0_57
*187 FILLER_0_63
*188 FILLER_0_70
*189 FILLER_0_77
*190 FILLER_0_85
*191 FILLER_0_91
*192 FILLER_0_99
*193 FILLER_10_103
*194 FILLER_10_49
*195 FILLER_10_61
*196 FILLER_10_77
*197 FILLER_10_83
*198 FILLER_10_85
*199 FILLER_10_89
*200 FILLER_10_97
*201 FILLER_11_101
*202 FILLER_11_21
*203 FILLER_11_29
*204 FILLER_11_3
*205 FILLER_11_38
*206 FILLER_11_44
*207 FILLER_11_52
*208 FILLER_11_57
*209 FILLER_11_69
*210 FILLER_11_77
*211 FILLER_12_104
*212 FILLER_12_16
*213 FILLER_12_29
*214 FILLER_12_41
*215 FILLER_12_53
*216 FILLER_12_65
*217 FILLER_12_77
*218 FILLER_12_83
*219 FILLER_12_98
*220 FILLER_13_106
*221 FILLER_13_22
*222 FILLER_13_34
*223 FILLER_13_45
*224 FILLER_13_53
*225 FILLER_13_57
*226 FILLER_13_69
*227 FILLER_13_81
*228 FILLER_13_89
*229 FILLER_13_98
*230 FILLER_14_25
*231 FILLER_14_29
*232 FILLER_14_41
*233 FILLER_14_53
*234 FILLER_14_65
*235 FILLER_14_77
*236 FILLER_14_83
*237 FILLER_14_99
*238 FILLER_15_100
*239 FILLER_15_104
*240 FILLER_15_19
*241 FILLER_15_38
*242 FILLER_15_46
*243 FILLER_15_54
*244 FILLER_15_57
*245 FILLER_15_69
*246 FILLER_15_88
*247 FILLER_16_106
*248 FILLER_16_13
*249 FILLER_16_78
*250 FILLER_17_104
*251 FILLER_17_23
*252 FILLER_17_29
*253 FILLER_17_49
*254 FILLER_17_57
*255 FILLER_17_62
*256 FILLER_17_70
*257 FILLER_17_76
*258 FILLER_17_85
*259 FILLER_17_91
*260 FILLER_17_97
*261 FILLER_1_103
*262 FILLER_1_20
*263 FILLER_1_34
*264 FILLER_1_64
*265 FILLER_1_87
*266 FILLER_2_103
*267 FILLER_2_13
*268 FILLER_2_27
*269 FILLER_2_29
*270 FILLER_2_51
*271 FILLER_2_79
*272 FILLER_2_83
*273 FILLER_2_99
*274 FILLER_3_102
*275 FILLER_3_16
*276 FILLER_3_25
*277 FILLER_3_37
*278 FILLER_3_49
*279 FILLER_3_55
*280 FILLER_3_64
*281 FILLER_3_70
*282 FILLER_3_78
*283 FILLER_3_88
*284 FILLER_3_94
*285 FILLER_4_103
*286 FILLER_4_17
*287 FILLER_4_25
*288 FILLER_4_29
*289 FILLER_4_41
*290 FILLER_4_53
*291 FILLER_4_65
*292 FILLER_4_77
*293 FILLER_4_83
*294 FILLER_4_85
*295 FILLER_4_97
*296 FILLER_5_103
*297 FILLER_5_35
*298 FILLER_5_47
*299 FILLER_5_55
*300 FILLER_5_57
*301 FILLER_5_69
*302 FILLER_5_75
*303 FILLER_5_83
*304 FILLER_5_95
*305 FILLER_6_10
*306 FILLER_6_103
*307 FILLER_6_22
*308 FILLER_6_42
*309 FILLER_6_54
*310 FILLER_6_58
*311 FILLER_6_66
*312 FILLER_6_78
*313 FILLER_6_85
*314 FILLER_6_91
*315 FILLER_6_99
*316 FILLER_7_101
*317 FILLER_7_24
*318 FILLER_7_3
*319 FILLER_7_36
*320 FILLER_7_48
*321 FILLER_7_57
*322 FILLER_7_69
*323 FILLER_7_93
*324 FILLER_8_102
*325 FILLER_8_20
*326 FILLER_8_29
*327 FILLER_8_41
*328 FILLER_8_53
*329 FILLER_8_65
*330 FILLER_8_77
*331 FILLER_8_83
*332 FILLER_8_85
*333 FILLER_8_93
*334 FILLER_9_102
*335 FILLER_9_27
*336 FILLER_9_3
*337 FILLER_9_39
*338 FILLER_9_51
*339 FILLER_9_55
*340 FILLER_9_64
*341 FILLER_9_76
*342 FILLER_9_88
*343 FILLER_9_94
*344 PHY_EDGE_ROW_0_Left_18
*345 PHY_EDGE_ROW_0_Right_0
*346 PHY_EDGE_ROW_10_Left_28
*347 PHY_EDGE_ROW_10_Right_10
*348 PHY_EDGE_ROW_11_Left_29
*349 PHY_EDGE_ROW_11_Right_11
*350 PHY_EDGE_ROW_12_Left_30
*351 PHY_EDGE_ROW_12_Right_12
*352 PHY_EDGE_ROW_13_Left_31
*353 PHY_EDGE_ROW_13_Right_13
*354 PHY_EDGE_ROW_14_Left_32
*355 PHY_EDGE_ROW_14_Right_14
*356 PHY_EDGE_ROW_15_Left_33
*357 PHY_EDGE_ROW_15_Right_15
*358 PHY_EDGE_ROW_16_Left_34
*359 PHY_EDGE_ROW_16_Right_16
*360 PHY_EDGE_ROW_17_Left_35
*361 PHY_EDGE_ROW_17_Right_17
*362 PHY_EDGE_ROW_1_Left_19
*363 PHY_EDGE_ROW_1_Right_1
*364 PHY_EDGE_ROW_2_Left_20
*365 PHY_EDGE_ROW_2_Right_2
*366 PHY_EDGE_ROW_3_Left_21
*367 PHY_EDGE_ROW_3_Right_3
*368 PHY_EDGE_ROW_4_Left_22
*369 PHY_EDGE_ROW_4_Right_4
*370 PHY_EDGE_ROW_5_Left_23
*371 PHY_EDGE_ROW_5_Right_5
*372 PHY_EDGE_ROW_6_Left_24
*373 PHY_EDGE_ROW_6_Right_6
*374 PHY_EDGE_ROW_7_Left_25
*375 PHY_EDGE_ROW_7_Right_7
*376 PHY_EDGE_ROW_8_Left_26
*377 PHY_EDGE_ROW_8_Right_8
*378 PHY_EDGE_ROW_9_Left_27
*379 PHY_EDGE_ROW_9_Right_9
*380 TAP_TAPCELL_ROW_0_36
*381 TAP_TAPCELL_ROW_0_37
*382 TAP_TAPCELL_ROW_0_38
*383 TAP_TAPCELL_ROW_10_52
*384 TAP_TAPCELL_ROW_10_53
*385 TAP_TAPCELL_ROW_11_54
*386 TAP_TAPCELL_ROW_12_55
*387 TAP_TAPCELL_ROW_12_56
*388 TAP_TAPCELL_ROW_13_57
*389 TAP_TAPCELL_ROW_14_58
*390 TAP_TAPCELL_ROW_14_59
*391 TAP_TAPCELL_ROW_15_60
*392 TAP_TAPCELL_ROW_16_61
*393 TAP_TAPCELL_ROW_16_62
*394 TAP_TAPCELL_ROW_17_63
*395 TAP_TAPCELL_ROW_17_64
*396 TAP_TAPCELL_ROW_17_65
*397 TAP_TAPCELL_ROW_1_39
*398 TAP_TAPCELL_ROW_2_40
*399 TAP_TAPCELL_ROW_2_41
*400 TAP_TAPCELL_ROW_3_42
*401 TAP_TAPCELL_ROW_4_43
*402 TAP_TAPCELL_ROW_4_44
*403 TAP_TAPCELL_ROW_5_45
*404 TAP_TAPCELL_ROW_6_46
*405 TAP_TAPCELL_ROW_6_47
*406 TAP_TAPCELL_ROW_7_48
*407 TAP_TAPCELL_ROW_8_49
*408 TAP_TAPCELL_ROW_8_50
*409 TAP_TAPCELL_ROW_9_51
*410 _049_
*411 _050_
*412 _051_
*413 _052_
*414 _053_
*415 _054_
*416 _055_
*417 _056_
*418 _057_
*419 _058_
*420 _059_
*421 _060_
*422 _061_
*423 _062_
*424 _063_
*425 _064_
*426 _065_
*427 _066_
*428 _067_
*429 _068_
*430 _069_
*431 _070_
*432 _071_
*433 _072_
*434 _073_
*435 _074_
*436 _075_
*437 _076_
*438 _077_
*439 _078_
*440 _079_
*441 _080_
*442 _081_
*443 _082_
*444 _083_
*445 _084_
*446 _085_
*447 _086_
*448 _087_
*449 _088_
*450 _089_
*451 _090_
*452 _091_
*453 _092_
*454 _093_
*455 _094_
*456 _095_
*457 _096_
*458 _097_
*459 _098_
*460 _099_
*461 _100_
*462 _101_
*463 _102_
*464 _103_
*465 _104_
*466 _105_
*467 _106_
*468 _107_
*469 _108_
*470 _109_
*471 _110_
*472 _111_
*473 _112_
*474 _113_
*475 _114_
*476 _115_
*477 _116_
*478 _117_
*479 _118_
*480 _119_
*481 _120_
*482 _121_
*483 _122_
*484 _123_
*485 _124_
*486 _125_
*487 _126_
*488 _127_
*489 _128_
*490 _129_
*491 input1
*492 input10
*493 input11
*494 input12
*495 input13
*496 input14
*497 input15
*498 input16
*499 input17
*500 input18
*501 input19
*502 input2
*503 input20
*504 input21
*505 input22
*506 input23
*507 input24
*508 input25
*509 input26
*510 input27
*511 input28
*512 input29
*513 input3
*514 input30
*515 input31
*516 input32
*517 input4
*518 input5
*519 input6
*520 input7
*521 input8
*522 input9
*523 output33
*524 output34
*525 output35
*526 output36
*527 output37
*528 output38
*529 output39
*530 output40
*531 output41
*532 output42
*533 output43
*534 output44
*535 output45
*536 output46
*537 output47
*538 output48
*539 output49
*540 output50
*541 output51
*542 output52
*543 output53
*544 output54
*545 output55
*546 output56
*547 output57
*548 output58
*549 output59
*550 output60
*551 output61
*552 output62
*553 output63
*554 output64

*PORTS
inputs[0] I
inputs[10] I
inputs[11] I
inputs[12] I
inputs[13] I
inputs[14] I
inputs[15] I
inputs[16] I
inputs[17] I
inputs[18] I
inputs[19] I
inputs[1] I
inputs[20] I
inputs[21] I
inputs[22] I
inputs[23] I
inputs[24] I
inputs[25] I
inputs[26] I
inputs[27] I
inputs[28] I
inputs[29] I
inputs[2] I
inputs[30] I
inputs[31] I
inputs[3] I
inputs[4] I
inputs[5] I
inputs[6] I
inputs[7] I
inputs[8] I
inputs[9] I
outputs[0] O
outputs[10] O
outputs[11] O
outputs[12] O
outputs[13] O
outputs[14] O
outputs[15] O
outputs[16] O
outputs[17] O
outputs[18] O
outputs[19] O
outputs[1] O
outputs[20] O
outputs[21] O
outputs[22] O
outputs[23] O
outputs[24] O
outputs[25] O
outputs[26] O
outputs[27] O
outputs[28] O
outputs[29] O
outputs[2] O
outputs[30] O
outputs[31] O
outputs[3] O
outputs[4] O
outputs[5] O
outputs[6] O
outputs[7] O
outputs[8] O
outputs[9] O

*D_NET *3 0.00263154
*CONN
*P inputs[0] I
*I *491:A I *D sky130_fd_sc_hd__buf_4
*CAP
1 inputs[0] 0.000952261
2 *491:A 0
3 *3:15 0.000952261
4 *3:15 outputs[4] 5.08354e-05
5 *3:15 *514:A 0.000471235
6 *3:15 *30:17 5.62572e-05
7 *3:15 *139:10 0.000148688
*RES
1 inputs[0] *3:15 43.6863 
2 *3:15 *491:A 23 
*END

*D_NET *4 0.00191466
*CONN
*P inputs[10] I
*I *502:A I *D sky130_fd_sc_hd__buf_1
*CAP
1 inputs[10] 0.000638161
2 *502:A 0
3 *4:11 0.000638161
4 *4:11 *545:A 0
5 *4:11 *548:A 5.50106e-05
6 *4:11 *35:10 0
7 *4:11 *60:8 0.000289751
8 *4:11 *129:10 0.000227208
9 *4:11 *131:10 6.63698e-05
10 *4:11 *142:10 0
*RES
1 inputs[10] *4:11 30.2457 
2 *4:11 *502:A 23 
*END

*D_NET *5 0.00120417
*CONN
*P inputs[11] I
*I *513:A I *D sky130_fd_sc_hd__buf_1
*CAP
1 inputs[11] 0.00060023
2 *513:A 0
3 *5:9 0.00060023
4 *5:9 *520:A 0
5 *5:9 *133:10 3.7122e-06
*RES
1 inputs[11] *5:9 27.3871 
2 *5:9 *513:A 23 
*END

*D_NET *6 0.000702812
*CONN
*P inputs[12] I
*I *517:A I *D sky130_fd_sc_hd__buf_1
*CAP
1 inputs[12] 0.00032516
2 *517:A 0
3 *6:17 0.00032516
4 *6:17 *10:11 3.12475e-05
5 *6:17 *19:13 2.12457e-05
6 *6:17 *94:14 0
*RES
1 inputs[12] *6:17 27.5105 
2 *6:17 *517:A 23 
*END

*D_NET *7 0.00126382
*CONN
*P inputs[13] I
*I *518:A I *D sky130_fd_sc_hd__buf_1
*CAP
1 inputs[13] 0.000560084
2 *518:A 0
3 *7:9 0.000560084
4 *7:9 outputs[13] 0
5 *7:9 outputs[15] 0
6 *7:9 *86:21 0.000143655
7 *7:9 *146:10 0
*RES
1 inputs[13] *7:9 27.3871 
2 *7:9 *518:A 23 
*END

*D_NET *8 0.00100871
*CONN
*P inputs[14] I
*I *519:A I *D sky130_fd_sc_hd__buf_1
*CAP
1 inputs[14] 0.000494614
2 *519:A 0.000494614
3 *519:A outputs[16] 0
4 *519:A *507:A 0
5 *519:A *171:10 1.94812e-05
*RES
1 inputs[14] *519:A 48.2743 
*END

*D_NET *9 0.00108044
*CONN
*P inputs[15] I
*I *520:A I *D sky130_fd_sc_hd__buf_1
*CAP
1 inputs[15] 0.000540218
2 *520:A 0.000540218
3 *520:A outputs[14] 0
4 *520:A *147:33 0
5 *5:9 *520:A 0
*RES
1 inputs[15] *520:A 49.4343 
*END

*D_NET *10 0.00123818
*CONN
*P inputs[16] I
*I *521:A I *D sky130_fd_sc_hd__clkbuf_2
*CAP
1 inputs[16] 0.00037332
2 *521:A 0
3 *10:11 0.00037332
4 *10:11 *15:11 0
5 *10:11 *19:13 0
6 *10:11 *29:13 5.99691e-05
7 *10:11 *94:14 0.00031271
8 *10:11 *116:30 0
9 *10:11 *178:8 8.76088e-05
10 *6:17 *10:11 3.12475e-05
*RES
1 inputs[16] *10:11 28.0384 
2 *10:11 *521:A 23 
*END

*D_NET *11 0.00215764
*CONN
*P inputs[17] I
*I *522:A I *D sky130_fd_sc_hd__clkbuf_2
*CAP
1 inputs[17] 0.000723733
2 *522:A 0
3 *11:13 0.000723733
4 *11:13 *445:B 1.01436e-05
5 *11:13 *515:A 0.00017794
6 *11:13 *14:13 0
7 *11:13 *20:17 3.12475e-05
8 *11:13 *115:10 0.000141052
9 *11:13 *116:12 0.000181692
10 *11:13 *119:66 0.000121273
11 *11:13 *170:12 2.49734e-05
12 *11:13 *170:14 0
13 *11:13 *179:10 2.18506e-05
*RES
1 inputs[17] *11:13 31.7379 
2 *11:13 *522:A 23 
*END

*D_NET *12 0.000904686
*CONN
*P inputs[18] I
*I *492:A I *D sky130_fd_sc_hd__buf_1
*CAP
1 inputs[18] 0.000452343
2 *492:A 0.000452343
3 *492:A *501:A 0
4 *492:A *23:13 0
*RES
1 inputs[18] *492:A 47.3214 
*END

*D_NET *13 0.000422745
*CONN
*P inputs[19] I
*I *493:A I *D sky130_fd_sc_hd__buf_1
*CAP
1 inputs[19] 0.000152287
2 *493:A 0.000152287
3 *493:A outputs[25] 5.58232e-05
4 *493:A outputs[27] 0
5 *493:A *498:A 0
6 *493:A *503:A 6.23473e-05
7 *493:A *75:10 0
*RES
1 inputs[19] *493:A 46.9931 
*END

*D_NET *14 0.00101256
*CONN
*P inputs[1] I
*I *494:A I *D sky130_fd_sc_hd__clkbuf_4
*CAP
1 inputs[1] 0.000430038
2 *494:A 0
3 *14:13 0.000430038
4 *14:13 *16:11 5.08354e-05
5 *14:13 *20:17 2.12457e-05
6 *14:13 *119:6 4.97675e-05
7 *14:13 *119:12 3.06338e-05
8 *11:13 *14:13 0
*RES
1 inputs[1] *14:13 29.2071 
2 *14:13 *494:A 23 
*END

*D_NET *15 0.00135777
*CONN
*P inputs[20] I
*I *495:A I *D sky130_fd_sc_hd__buf_1
*CAP
1 inputs[20] 0.000354182
2 *495:A 0
3 *15:11 0.000354182
4 *15:11 outputs[2] 6.46017e-05
5 *15:11 *29:13 0.000136291
6 *15:11 *94:14 0.00044851
7 *10:11 *15:11 0
*RES
1 inputs[20] *15:11 29.7132 
2 *15:11 *495:A 23 
*END

*D_NET *16 0.00119953
*CONN
*P inputs[21] I
*I *496:A I *D sky130_fd_sc_hd__clkbuf_1
*CAP
1 inputs[21] 0.000329062
2 *496:A 0
3 *16:11 0.000329062
4 *16:11 outputs[5] 9.20313e-05
5 *16:11 *34:13 0.000192894
6 *16:11 *119:25 0.000195407
7 *16:11 *136:8 1.02387e-05
8 *14:13 *16:11 5.08354e-05
*RES
1 inputs[21] *16:11 29.3611 
2 *16:11 *496:A 23 
*END

*D_NET *17 0.00103212
*CONN
*P inputs[22] I
*I *497:A I *D sky130_fd_sc_hd__clkbuf_1
*CAP
1 inputs[22] 0.000488992
2 *497:A 0.000488992
3 *497:A *501:A 0
4 *497:A *507:A 0
5 *497:A *101:10 5.41385e-05
*RES
1 inputs[22] *497:A 48.2743 
*END

*D_NET *18 0.000620064
*CONN
*P inputs[23] I
*I *498:A I *D sky130_fd_sc_hd__clkbuf_1
*CAP
1 inputs[23] 0.000248871
2 *498:A 0.000248871
3 *498:A *503:A 5.99754e-05
4 *498:A *27:13 6.23473e-05
5 *493:A *498:A 0
*RES
1 inputs[23] *498:A 48.7538 
*END

*D_NET *19 0.00109882
*CONN
*P inputs[24] I
*I *499:A I *D sky130_fd_sc_hd__buf_1
*CAP
1 inputs[24] 0.000517934
2 *499:A 0
3 *19:13 0.000517934
4 *19:13 *515:A 4.17018e-05
5 *19:13 *94:14 0
6 *6:17 *19:13 2.12457e-05
7 *10:11 *19:13 0
*RES
1 inputs[24] *19:13 31.1098 
2 *19:13 *499:A 23 
*END

*D_NET *20 0.000733663
*CONN
*P inputs[25] I
*I *500:A I *D sky130_fd_sc_hd__buf_1
*CAP
1 inputs[25] 0.000340585
2 *500:A 0
3 *20:17 0.000340585
4 *20:17 *94:14 0
5 *11:13 *20:17 3.12475e-05
6 *14:13 *20:17 2.12457e-05
*RES
1 inputs[25] *20:17 27.8627 
2 *20:17 *500:A 23 
*END

*D_NET *21 0.00114209
*CONN
*P inputs[26] I
*I *501:A I *D sky130_fd_sc_hd__clkbuf_1
*CAP
1 inputs[26] 0.000524441
2 *501:A 0.000524441
3 *501:A *423:A 9.32114e-05
4 *492:A *501:A 0
5 *497:A *501:A 0
*RES
1 inputs[26] *501:A 49.3721 
*END

*D_NET *22 0.000690915
*CONN
*P inputs[27] I
*I *503:A I *D sky130_fd_sc_hd__clkbuf_1
*CAP
1 inputs[27] 0.000263024
2 *503:A 0.000263024
3 *503:A *128:8 4.25439e-05
4 *493:A *503:A 6.23473e-05
5 *498:A *503:A 5.99754e-05
*RES
1 inputs[27] *503:A 49.6415 
*END

*D_NET *23 0.00294475
*CONN
*P inputs[28] I
*I *504:A I *D sky130_fd_sc_hd__clkbuf_1
*CAP
1 inputs[28] 0.00109396
2 *504:A 0
3 *23:13 0.00109396
4 *23:13 outputs[3] 0.000162818
5 *23:13 *422:B 9.03227e-05
6 *23:13 *512:A 0.00034033
7 *23:13 *60:8 0
8 *23:13 *137:8 0.000163352
9 *23:13 *142:10 0
10 *492:A *23:13 0
*RES
1 inputs[28] *23:13 41.1305 
2 *23:13 *504:A 23 
*END

*D_NET *24 0.00126382
*CONN
*P inputs[29] I
*I *505:A I *D sky130_fd_sc_hd__clkbuf_1
*CAP
1 inputs[29] 0.000560084
2 *505:A 0
3 *24:9 0.000560084
4 *24:9 outputs[11] 0
5 *24:9 outputs[13] 0
6 *24:9 *86:21 0.000143655
7 *24:9 *144:10 0
*RES
1 inputs[29] *24:9 27.3871 
2 *24:9 *505:A 23 
*END

*D_NET *25 0.00132004
*CONN
*P inputs[2] I
*I *506:A I *D sky130_fd_sc_hd__buf_2
*CAP
1 inputs[2] 0.00051981
2 *506:A 0
3 *25:15 0.00051981
4 *25:15 outputs[0] 3.49463e-05
5 *25:15 outputs[3] 3.49463e-05
6 *25:15 *545:A 5.67058e-05
7 *25:15 *35:10 0.000153823
*RES
1 inputs[2] *25:15 33.1575 
2 *25:15 *506:A 23 
*END

*D_NET *26 0.00101207
*CONN
*P inputs[30] I
*I *507:A I *D sky130_fd_sc_hd__clkbuf_1
*CAP
1 inputs[30] 0.000504181
2 *507:A 0.000504181
3 *507:A *132:10 3.7122e-06
4 *497:A *507:A 0
5 *519:A *507:A 0
*RES
1 inputs[30] *507:A 48.5643 
*END

*D_NET *27 0.000854425
*CONN
*P inputs[31] I
*I *508:A I *D sky130_fd_sc_hd__clkbuf_1
*CAP
1 inputs[31] 0.000396039
2 *508:A 0
3 *27:13 0.000396039
4 *27:13 *133:10 0
5 *498:A *27:13 6.23473e-05
*RES
1 inputs[31] *27:13 28.4022 
2 *27:13 *508:A 23 
*END

*D_NET *28 0.004063
*CONN
*P inputs[3] I
*I *509:A I *D sky130_fd_sc_hd__buf_2
*CAP
1 inputs[3] 0.00105157
2 *509:A 0
3 *28:13 0.00105157
4 *28:13 outputs[10] 0
5 *28:13 outputs[1] 0
6 *28:13 outputs[4] 0.000203751
7 *28:13 outputs[6] 0
8 *28:13 outputs[8] 0.000236253
9 *28:13 *30:17 2.12457e-05
10 *28:13 *46:8 0.000615597
11 *28:13 *116:12 0.000606003
12 *28:13 *134:8 0.000139352
13 *28:13 *139:25 0.000137651
14 *28:13 *173:10 0
*RES
1 inputs[3] *28:13 42.0834 
2 *28:13 *509:A 23 
*END

*D_NET *29 0.00154051
*CONN
*P inputs[4] I
*I *510:A I *D sky130_fd_sc_hd__clkbuf_2
*CAP
1 inputs[4] 0.000581201
2 *510:A 0
3 *29:13 0.000581201
4 *29:13 *415:B 0.000126847
5 *29:13 *120:10 5.50049e-05
6 *10:11 *29:13 5.99691e-05
7 *15:11 *29:13 0.000136291
*RES
1 inputs[4] *29:13 32.0065 
2 *29:13 *510:A 23 
*END

*D_NET *30 0.00113748
*CONN
*P inputs[5] I
*I *511:A I *D sky130_fd_sc_hd__dlymetal6s2s_1
*CAP
1 inputs[5] 0.000516033
2 *511:A 0
3 *30:17 0.000516033
4 *30:17 outputs[1] 2.79122e-05
5 *30:17 *514:A 0
6 *3:15 *30:17 5.62572e-05
7 *28:13 *30:17 2.12457e-05
*RES
1 inputs[5] *30:17 31.7362 
2 *30:17 *511:A 23 
*END

*D_NET *31 0.00105551
*CONN
*P inputs[6] I
*I *512:A I *D sky130_fd_sc_hd__clkbuf_2
*CAP
1 inputs[6] 0.000357588
2 *512:A 0.000357588
3 *512:A *60:8 0
4 *23:13 *512:A 0.00034033
*RES
1 inputs[6] *512:A 47.4457 
*END

*D_NET *32 0.00129044
*CONN
*P inputs[7] I
*I *514:A I *D sky130_fd_sc_hd__dlymetal6s2s_1
*CAP
1 inputs[7] 0.0004096
2 *514:A 0.0004096
3 *514:A outputs[10] 0
4 *3:15 *514:A 0.000471235
5 *30:17 *514:A 0
*RES
1 inputs[7] *514:A 49.4343 
*END

*D_NET *33 0.00152606
*CONN
*P inputs[8] I
*I *515:A I *D sky130_fd_sc_hd__clkbuf_2
*CAP
1 inputs[8] 0.000643107
2 *515:A 0.000643107
3 *515:A *421:B 1.01436e-05
4 *515:A *111:8 0
5 *515:A *140:23 1.00612e-05
6 *11:13 *515:A 0.00017794
7 *19:13 *515:A 4.17018e-05
*RES
1 inputs[8] *515:A 48.7191 
*END

*D_NET *34 0.00241302
*CONN
*P inputs[9] I
*I *516:A I *D sky130_fd_sc_hd__clkbuf_2
*CAP
1 inputs[9] 0.00086344
2 *516:A 0
3 *34:13 0.00086344
4 *34:13 outputs[1] 5.75829e-05
5 *34:13 outputs[5] 8.26098e-05
6 *34:13 *524:A 0.000141052
7 *34:13 *91:10 5.50106e-05
8 *34:13 *136:8 0
9 *34:13 *136:17 0.000156994
10 *16:11 *34:13 0.000192894
*RES
1 inputs[9] *34:13 37.8893 
2 *34:13 *516:A 23 
*END

*D_NET *35 0.00148548
*CONN
*P outputs[0] O
*I *523:X O *D sky130_fd_sc_hd__buf_2
*CAP
1 outputs[0] 0.000107603
2 *523:X 0.000381011
3 *35:10 0.000488613
4 outputs[0] outputs[2] 4.79628e-05
5 outputs[0] outputs[3] 0
6 *35:10 outputs[2] 0.00010018
7 *35:10 *545:A 2.93845e-05
8 *35:10 *131:10 0.000141954
9 *4:11 *35:10 0
10 *25:15 outputs[0] 3.49463e-05
11 *25:15 *35:10 0.000153823
*RES
1 *523:X *35:10 46.2961 
2 *35:10 outputs[0] 8.50027 
*END

*D_NET *36 0.00304421
*CONN
*P outputs[10] O
*I *524:X O *D sky130_fd_sc_hd__buf_2
*CAP
1 outputs[10] 0.000945417
2 *524:X 5.56561e-05
3 *36:8 0.00100107
4 outputs[10] outputs[8] 0
5 outputs[10] *440:A 3.71611e-05
6 outputs[10] *91:10 0.000166522
7 outputs[10] *119:46 0.000194318
8 outputs[10] *134:16 0.000218962
9 outputs[10] *136:8 0.000149452
10 outputs[10] *139:10 6.70864e-05
11 outputs[10] *170:14 4.85126e-05
12 outputs[10] *170:23 6.32688e-05
13 *36:8 *136:17 9.67842e-05
14 *514:A outputs[10] 0
15 *28:13 outputs[10] 0
*RES
1 *524:X *36:8 39.0979 
2 *36:8 outputs[10] 22.7857 
*END

*D_NET *37 0.0012146
*CONN
*P outputs[11] O
*I *525:X O *D sky130_fd_sc_hd__buf_2
*CAP
1 outputs[11] 0.00058085
2 *525:X 0.00058085
3 outputs[11] outputs[12] 0
4 outputs[11] outputs[4] 0
5 outputs[11] *86:21 5.2894e-05
6 *24:9 outputs[11] 0
*RES
1 *525:X outputs[11] 49.6829 
*END

*D_NET *38 0.00174137
*CONN
*P outputs[12] O
*I *526:X O *D sky130_fd_sc_hd__buf_2
*CAP
1 outputs[12] 0.000273179
2 *526:X 0.000255817
3 *38:12 0.000528996
4 outputs[12] outputs[4] 0.000320818
5 outputs[12] outputs[9] 0
6 *38:12 outputs[4] 0.000126876
7 *38:12 outputs[9] 0
8 *38:12 *83:37 0.000235687
9 outputs[11] outputs[12] 0
*RES
1 *526:X *38:12 42.8782 
2 *38:12 outputs[12] 8.52393 
*END

*D_NET *39 0.00120325
*CONN
*P outputs[13] O
*I *527:X O *D sky130_fd_sc_hd__buf_2
*CAP
1 outputs[13] 0.000575179
2 *527:X 0.000575179
3 outputs[13] *86:21 5.2894e-05
4 *7:9 outputs[13] 0
5 *24:9 outputs[13] 0
*RES
1 *527:X outputs[13] 49.6829 
*END

*D_NET *40 0.00119684
*CONN
*P outputs[14] O
*I *528:X O *D sky130_fd_sc_hd__buf_2
*CAP
1 outputs[14] 0.00059842
2 *528:X 0.00059842
3 outputs[14] outputs[15] 0
4 *520:A outputs[14] 0
*RES
1 *528:X outputs[14] 49.6829 
*END

*D_NET *41 0.00119689
*CONN
*P outputs[15] O
*I *529:X O *D sky130_fd_sc_hd__buf_2
*CAP
1 outputs[15] 0.000564645
2 *529:X 0.000564645
3 outputs[15] *529:A 3.22879e-05
4 outputs[15] *86:21 3.53115e-05
5 outputs[14] outputs[15] 0
6 *7:9 outputs[15] 0
*RES
1 *529:X outputs[15] 49.6829 
*END

*D_NET *42 0.000928267
*CONN
*P outputs[16] O
*I *530:X O *D sky130_fd_sc_hd__buf_2
*CAP
1 outputs[16] 0.000464134
2 *530:X 0.000464134
3 outputs[16] outputs[18] 0
4 *519:A outputs[16] 0
*RES
1 *530:X outputs[16] 47.0936 
*END

*D_NET *43 0.000548212
*CONN
*P outputs[17] O
*I *531:X O *D sky130_fd_sc_hd__buf_2
*CAP
1 outputs[17] 0.000215021
2 *531:X 0.000215021
3 outputs[17] outputs[19] 6.23473e-05
4 outputs[17] outputs[24] 5.58232e-05
5 outputs[17] *77:8 0
*RES
1 *531:X outputs[17] 48.0051 
*END

*D_NET *44 0.000935434
*CONN
*P outputs[18] O
*I *532:X O *D sky130_fd_sc_hd__buf_2
*CAP
1 outputs[18] 0.000467717
2 *532:X 0.000467717
3 outputs[18] outputs[20] 0
4 outputs[16] outputs[18] 0
*RES
1 *532:X outputs[18] 47.0936 
*END

*D_NET *45 0.000562632
*CONN
*P outputs[19] O
*I *533:X O *D sky130_fd_sc_hd__buf_2
*CAP
1 outputs[19] 0.000211021
2 *533:X 0.000211021
3 outputs[19] outputs[24] 0
4 outputs[19] outputs[30] 7.82427e-05
5 outputs[19] *77:8 0
6 outputs[17] outputs[19] 6.23473e-05
*RES
1 *533:X outputs[19] 47.7832 
*END

*D_NET *46 0.00334745
*CONN
*P outputs[1] O
*I *534:X O *D sky130_fd_sc_hd__buf_2
*CAP
1 outputs[1] 0.000687432
2 *534:X 0.000423746
3 *46:8 0.00111118
4 *46:8 *111:8 0
5 *46:8 *116:12 0.000115299
6 *46:8 *116:79 0
7 *46:8 *154:8 0.000308706
8 *46:8 *173:10 0
9 *28:13 outputs[1] 0
10 *28:13 *46:8 0.000615597
11 *30:17 outputs[1] 2.79122e-05
12 *34:13 outputs[1] 5.75829e-05
*RES
1 *534:X *46:8 49.5896 
2 *46:8 outputs[1] 10.1317 
*END

*D_NET *47 0.00095191
*CONN
*P outputs[20] O
*I *535:X O *D sky130_fd_sc_hd__buf_2
*CAP
1 outputs[20] 0.000452757
2 *535:X 0.000452757
3 outputs[20] outputs[22] 0
4 outputs[20] *532:A 1.41077e-05
5 outputs[20] *535:A 3.22879e-05
6 outputs[18] outputs[20] 0
*RES
1 *535:X outputs[20] 47.0936 
*END

*D_NET *48 0.000935434
*CONN
*P outputs[21] O
*I *536:X O *D sky130_fd_sc_hd__buf_2
*CAP
1 outputs[21] 0.000467717
2 *536:X 0.000467717
3 outputs[21] outputs[22] 0
*RES
1 *536:X outputs[21] 47.0936 
*END

*D_NET *49 0.00101793
*CONN
*P outputs[22] O
*I *537:X O *D sky130_fd_sc_hd__buf_2
*CAP
1 outputs[22] 0.000494273
2 *537:X 0.000494273
3 outputs[22] *537:A 2.93845e-05
4 outputs[20] outputs[22] 0
5 outputs[21] outputs[22] 0
*RES
1 *537:X outputs[22] 47.57 
*END

*D_NET *50 0.000873044
*CONN
*P outputs[23] O
*I *538:X O *D sky130_fd_sc_hd__buf_2
*CAP
1 outputs[23] 0.000159318
2 *538:X 0.000236897
3 *50:8 0.000396215
4 outputs[23] outputs[29] 8.06147e-05
5 *50:8 outputs[29] 0
*RES
1 *538:X *50:8 42.5468 
2 *50:8 outputs[23] 8.75787 
*END

*D_NET *51 0.0004793
*CONN
*P outputs[24] O
*I *539:X O *D sky130_fd_sc_hd__buf_2
*CAP
1 outputs[24] 0.000180565
2 *539:X 0.000180565
3 outputs[24] outputs[26] 6.23473e-05
4 outputs[24] outputs[27] 0
5 outputs[17] outputs[24] 5.58232e-05
6 outputs[19] outputs[24] 0
*RES
1 *539:X outputs[24] 47.0789 
*END

*D_NET *52 0.000544519
*CONN
*P outputs[25] O
*I *540:X O *D sky130_fd_sc_hd__buf_2
*CAP
1 outputs[25] 0.000213174
2 *540:X 0.000213174
3 outputs[25] outputs[27] 6.23473e-05
4 outputs[25] *161:10 0
5 *493:A outputs[25] 5.58232e-05
*RES
1 *540:X outputs[25] 48.3572 
*END

*D_NET *53 0.000710015
*CONN
*P outputs[26] O
*I *541:X O *D sky130_fd_sc_hd__buf_2
*CAP
1 outputs[26] 0.000293846
2 *541:X 0.000293846
3 outputs[26] outputs[27] 5.99754e-05
4 outputs[26] *162:25 0
5 outputs[24] outputs[26] 6.23473e-05
*RES
1 *541:X outputs[26] 49.4136 
*END

*D_NET *54 0.000561661
*CONN
*P outputs[27] O
*I *542:X O *D sky130_fd_sc_hd__buf_2
*CAP
1 outputs[27] 0.000219669
2 *542:X 0.000219669
3 outputs[27] *161:10 0
4 outputs[24] outputs[27] 0
5 outputs[25] outputs[27] 6.23473e-05
6 outputs[26] outputs[27] 5.99754e-05
7 *493:A outputs[27] 0
*RES
1 *542:X outputs[27] 47.7832 
*END

*D_NET *55 0.000478778
*CONN
*P outputs[28] O
*I *543:X O *D sky130_fd_sc_hd__buf_2
*CAP
1 outputs[28] 0.000158966
2 *543:X 0.000158966
3 outputs[28] outputs[29] 7.82427e-05
4 outputs[28] outputs[31] 6.98607e-05
5 outputs[28] *158:10 1.27424e-05
*RES
1 *543:X outputs[28] 47.0789 
*END

*D_NET *56 0.000765777
*CONN
*P outputs[29] O
*I *544:X O *D sky130_fd_sc_hd__buf_2
*CAP
1 outputs[29] 0.00030346
2 *544:X 0.00030346
3 outputs[23] outputs[29] 8.06147e-05
4 outputs[28] outputs[29] 7.82427e-05
5 *50:8 outputs[29] 0
*RES
1 *544:X outputs[29] 48.1267 
*END

*D_NET *57 0.000813863
*CONN
*P outputs[2] O
*I *545:X O *D sky130_fd_sc_hd__buf_2
*CAP
1 outputs[2] 0.000292017
2 *545:X 0.000292017
3 outputs[2] *545:A 1.70831e-05
4 outputs[0] outputs[2] 4.79628e-05
5 *15:11 outputs[2] 6.46017e-05
6 *35:10 outputs[2] 0.00010018
*RES
1 *545:X outputs[2] 48.7952 
*END

*D_NET *58 0.000647615
*CONN
*P outputs[30] O
*I *546:X O *D sky130_fd_sc_hd__buf_2
*CAP
1 outputs[30] 0.000213184
2 *546:X 0.000213184
3 outputs[30] outputs[31] 7.82427e-05
4 outputs[30] *167:23 6.47626e-05
5 outputs[19] outputs[30] 7.82427e-05
*RES
1 *546:X outputs[30] 48.4875 
*END

*D_NET *59 0.000503371
*CONN
*P outputs[31] O
*I *547:X O *D sky130_fd_sc_hd__buf_2
*CAP
1 outputs[31] 0.000177634
2 *547:X 0.000177634
3 outputs[31] *69:16 0
4 outputs[28] outputs[31] 6.98607e-05
5 outputs[30] outputs[31] 7.82427e-05
*RES
1 *547:X outputs[31] 47.4311 
*END

*D_NET *60 0.00195042
*CONN
*P outputs[3] O
*I *548:X O *D sky130_fd_sc_hd__buf_2
*CAP
1 outputs[3] 0.000305231
2 *548:X 0.000384168
3 *60:8 0.000689399
4 *60:8 *142:10 8.41115e-05
5 outputs[0] outputs[3] 0
6 *512:A *60:8 0
7 *4:11 *60:8 0.000289751
8 *23:13 outputs[3] 0.000162818
9 *23:13 *60:8 0
10 *25:15 outputs[3] 3.49463e-05
*RES
1 *548:X *60:8 48.8854 
2 *60:8 outputs[3] 9.53067 
*END

*D_NET *61 0.00565124
*CONN
*P outputs[4] O
*I *549:X O *D sky130_fd_sc_hd__buf_2
*CAP
1 outputs[4] 0.00184561
2 *549:X 0.000342437
3 *61:8 0.00218805
4 outputs[4] *478:B 0
5 outputs[4] *526:A 0
6 outputs[4] *84:10 7.8128e-05
7 outputs[4] *90:8 3.40698e-05
8 outputs[4] *136:30 0.000136609
9 outputs[4] *144:10 0
10 *61:8 *83:52 0.00014227
11 *61:8 *121:10 0.000181794
12 outputs[11] outputs[4] 0
13 outputs[12] outputs[4] 0.000320818
14 *3:15 outputs[4] 5.08354e-05
15 *28:13 outputs[4] 0.000203751
16 *38:12 outputs[4] 0.000126876
*RES
1 *549:X *61:8 42.9093 
2 *61:8 outputs[4] 27.5612 
*END

*D_NET *62 0.000649684
*CONN
*P outputs[5] O
*I *550:X O *D sky130_fd_sc_hd__buf_2
*CAP
1 outputs[5] 0.000237522
2 *550:X 0.000237522
3 *16:11 outputs[5] 9.20313e-05
4 *34:13 outputs[5] 8.26098e-05
*RES
1 *550:X outputs[5] 48.0909 
*END

*D_NET *63 0.00124442
*CONN
*P outputs[6] O
*I *551:X O *D sky130_fd_sc_hd__buf_2
*CAP
1 outputs[6] 0.000595762
2 *551:X 0.000595762
3 outputs[6] outputs[7] 0
4 outputs[6] outputs[8] 0
5 outputs[6] *175:57 5.2894e-05
6 *28:13 outputs[6] 0
*RES
1 *551:X outputs[6] 49.6829 
*END

*D_NET *64 0.001177
*CONN
*P outputs[7] O
*I *552:X O *D sky130_fd_sc_hd__buf_2
*CAP
1 outputs[7] 0.000573782
2 *552:X 0.000573782
3 outputs[7] outputs[9] 0
4 outputs[7] *83:37 1.3523e-05
5 outputs[7] *175:57 1.59094e-05
6 outputs[6] outputs[7] 0
*RES
1 *552:X outputs[7] 49.2064 
*END

*D_NET *65 0.00143735
*CONN
*P outputs[8] O
*I *553:X O *D sky130_fd_sc_hd__buf_2
*CAP
1 outputs[8] 0.000408284
2 *553:X 0.00017026
3 *65:8 0.000578544
4 *65:8 *116:8 1.39317e-05
5 *65:8 *116:79 3.00792e-05
6 outputs[10] outputs[8] 0
7 outputs[6] outputs[8] 0
8 *28:13 outputs[8] 0.000236253
*RES
1 *553:X *65:8 40.0507 
2 *65:8 outputs[8] 10.1086 
*END

*D_NET *66 0.00110111
*CONN
*P outputs[9] O
*I *554:X O *D sky130_fd_sc_hd__buf_2
*CAP
1 outputs[9] 0.000521575
2 *554:X 0.000521575
3 outputs[9] *83:37 5.79559e-05
4 outputs[12] outputs[9] 0
5 outputs[7] outputs[9] 0
6 *38:12 outputs[9] 0
*RES
1 *554:X outputs[9] 48.73 
*END

*D_NET *67 0.00202963
*CONN
*I *447:B I *D sky130_fd_sc_hd__xnor2_1
*I *446:X O *D sky130_fd_sc_hd__xor2_1
*CAP
1 *447:B 0
2 *446:X 0
3 *67:12 0.000954316
4 *67:6 0.000954316
5 *67:12 *444:B 0
6 *67:12 *459:A 2.93845e-05
7 *67:12 *85:8 0
8 *67:12 *112:5 6.17437e-06
9 *67:12 *115:16 8.26672e-05
10 *67:12 *130:8 0
11 *67:12 *160:14 2.76611e-06
*RES
1 *446:X *67:6 38 
2 *67:6 *67:12 32.6693 
3 *67:12 *447:B 23 
*END

*D_NET *68 0.00126911
*CONN
*I *448:B I *D sky130_fd_sc_hd__xnor2_1
*I *447:Y O *D sky130_fd_sc_hd__xnor2_1
*CAP